! Test Mech

ELEMENTS
H   O
END


SPECIES
OH  H2O2
END

THERMO ALL
   300.000  1000.000  5000.000
OH                IU3/03O   1 H  1    0    0G   200.000  6000.00  1000.00      1
 2.83853033E+00 1.10741289E-03-2.94000209E-07 4.20698729E-11-2.42289890E-15    2
 3.69780808E+03 5.84494652E+00 3.99198424E+00-2.40106655E-03 4.61664033E-06    3
-3.87916306E-09 1.36319502E-12 3.36889836E+03-1.03998477E-01 4.48613328E+03    4
H2O2              T 8/03H   2O   2    0    0G   200.000  6000.00  1000.00      1
 4.57977305E+00 4.05326003E-03-1.29844730E-06 1.98211400E-10-1.13968792E-14    2
-1.80071775E+04 6.64970694E-01 4.31515149E+00-8.47390622E-04 1.76404323E-05    3
-2.26762944E-08 9.08950158E-12-1.77067437E+04 3.27373319E+00-1.63425145E+04    4
END


REACTIONS  CAL/MOLE  MOLES
H2O2(+M)<=>OH+OH(+M)                                         +2.0000000E+012 +9.0000000E-001 +4.8749000E+004   !\AUTHOR: AK !\REF: TROE, COMBUST. FLAME, 158:594-601 (2011)!\COMMENT: RATE CONSTANT IS FOR N2, !\COMMENT: EFFICIENCIS OF H2O FROM THE SAME REF,
LOW /                                                        +2.4900000E+024 -2.3000000E+000 +4.8749000E+004 / !LOW-PRESSURE-LIMIT
TROE /                                       +4.3000000E-001 +1.0000000E-030 +1.0000000E+030 / !TROE PARAMETERS
 H2O2 / 7.700 / !3RD BODY COLLIDER EFFICIENCIES
END
