! Test Mech
! 
! Chemkin file converted from Cantera solution object
! 

ELEMENTS
H  O
END


SPECIES
OH                 ! 
H2O2               ! 
END


THERMO ALL
   300.000  1000.000  6000.000
! 
OH IU3/03               H   1O   1          G   200.000  6000.000 1000.00      1
 2.83853033e+00 1.10741289e-03-2.94000209e-07 4.20698729e-11-2.42289890e-15    2
 3.69780808e+03 5.84494652e+00 3.99198424e+00-2.40106655e-03 4.61664033e-06    3
-3.87916306e-09 1.36319502e-12 3.36889836e+03-1.03998477e-01                   4
! 
H2O2 T8/03              H   2O   2          G   200.000  6000.000 1000.00      1
 4.57977305e+00 4.05326003e-03-1.29844730e-06 1.98211400e-10-1.13968792e-14    2
-1.80071775e+04 6.64970694e-01 4.31515149e+00-8.47390622e-04 1.76404323e-05    3
-2.26762944e-08 9.08950158e-12-1.77067437e+04 3.27373319e+00                   4
END


REACTIONS  CAL/MOLE  MOLES
! \AUTHOR: AK !\REF: TROE, COMBUST. FLAME, 158:594-601 (2011)!\COMMENT: RATE CONSTANT IS FOR N2, !\COMMENT: EFFICIENCIS OF H2O FROM THE SAME REF,
! LOW-PRESSURE-LIMIT
! TROE PARAMETERS
H2O2 (+M) <=> 2 OH (+M)                             2.0000000E+012    9.0000000E-001    4.8749000E+004    ! 3RD BODY COLLIDER EFFICIENCIES
                                           LOW /    2.4900000E+024   -2.3000000E+000    4.8749000E+004 /
                          TROE /  4.3000000E-001    1.0000000E-030    1.0000000E+030    0.0000000E+000 /
   H2O2/ 7.700/
END