! Based on Styrene (2015)
! 
! Chemkin file converted from Cantera solution object
! 

ELEMENTS
C  H  O  Ar  Kr  Ne
END


SPECIES
C12H10             ! biphenyl                   ZUOUZKKEUPVFJK-UHFFFAOYSA-N       InChI=1S/C12H10/c1-3-7-11(8-4-1)12-9-5-2-6-10-12/h1-10H
C12H8              ! biphenylene
C8H8               ! styrene                    PPBRXRYQALVLMV-UHFFFAOYSA-N       InChI=1S/C8H8/c1-2-8-6-4-3-5-7-8/h2-7H/1H2
aC8H7              ! alpha-styryl               HVOAOEQOQJYIGP-UHFFFAOYSA-N       InChI=1S/C8H7/c1-2-8-6-4-3-5-7-8/h3-7H/1H2
bC8H7              ! beta-styryl                XXZXPSKZWQWGKG-UHFFFAOYSA-N       InChI=1S/C8H7/c1-2-8-6-4-3-5-7-8/h1-7H
oC8H7              ! styrene-2-ylradical        YQFQMJCKLXLQOX-UHFFFAOYSA-N       InChI=1S/C8H7/c1-2-8-6-4-3-5-7-8/h2-6H/1H2
C8H2               ! tetracetylene              CDGAYCHXIBGGNI-UHFFFAOYSA-N       InChI=1S/C8H2/c1-3-5-7-8-6-4-2/h1-2H
C8H6               ! phenylacetylene            UEXCJVNBTNXOEH-UHFFFAOYSA-N       InChI=1S/C8H6/c1-2-8-6-4-3-5-7-8/h1/3-7H
15HD               ! 1,5-hexadiyne              YFIBSNDOVCWPBL-UHFFFAOYSA-N       InChI=1S/C6H6/c1-3-5-6-4-2/h1-2H,5-6H2
34DMCB             ! 3,4-dimethylenecyclobutene WHCRVRGGFVUMOK-UHFFFAOYSA-N       InChI=1S/C6H6/c1-5-3-4-6(5)2/h3-4H,1-2H2
Fulvene            ! fulvene                    UHOVQNZJYSORNB-UHFFFAOYSA-N       InChI=1S/C6H6/c1-2-4-6-5-3-1/h1-6H
Benzene            ! benzene                    UHOVQNZJYSORNB-UHFFFAOYSA-N       InChI=1S/C6H6/c1-2-4-6-5-3-1/h1-6H
13HD5Y             ! 1,3-hexadiene-5-yne        OGWJYLKDZYZYBA-UHFFFAOYSA-N       InChI=1S/C6H6/c1-3-5-6-4-2/h1,4-6H,2H2
12HD5Y             ! 1,2-hexadiene-5-yne        BIFVSVOAVBNUKC-UHFFFAOYSA-N       InChI=1S/C6H6/c1-3-5-6-4-2/h1,6H,2,5H2
2E13BD             ! 2-ethynyl-1,3-butadiene    MDCQHVMMIFCHAK-UHFFFAOYSA-N       InChI=1S/C6H6/c1-4-6(3)5-2/h1,5H,2-3H2
C6H5               ! phenyl                     CIUQDSCDWFSTQR-UHFFFAOYSA-N       InChI=1S/C6H5/c1-2-4-6-5-3-1/h1-5H
cisC6H4            ! (Z)-hex-3-en-1/5-diyne     KIWAUQFHKHLABA-WAYWQWQTSA-N       InChI=1S/C6H4/c1-3-5-6-4-2/h1-2/5-6H/b6-5-
oC6H4              ! o-benzyne                  KLYCPFXDDDMZNQ-UHFFFAOYSA-N       InChI=1S/C6H4/c1-2-4-6-5-3-1/h1-4H
C6H3               ! HCCCHCCCH (linear)                                                                                                    Using CH2=C=C=C=C=CH* from Burcat
C6H2               ! triacetylene               MZHROOGPARRVHS-UHFFFAOYSA-N       InChI=1S/C6H2/c1-3-5-6-4-2/h1-2H
C6H                ! 
C4H5               ! 1-Butayn-4yl   ??????
C4H4               ! vinylacetylene             WFYPICNXBKQZGB-UHFFFAOYSA-N       InChI=1S/C4H4/c1-3-4-2/h1/4H/2H2
C4H3               ! E/1-butene-3-yne-1-yl      GQMYNBIOBOYFNG-UHFFFAOYSA-N       InChI=1S/C4H3/c1-3-4-2/h1-3H                             Check
C4H2               ! diacetylene                LLCSWKVOHICRDD-UHFFFAOYSA-N       InChI=1S/C4H2/c1-3-4-2/h1-2H
C4H                ! 
C4                 ! Using C4 triplet from Burcat
a-C3H4             ! allene                     IYABWNGZIDDRAK-UHFFFAOYSA-N       InChI=1S/C3H4/c1-3-2/h1-2H2
p-C3H4             ! propyne                    MWWATHDPGQKSAR-UHFFFAOYSA-N       InChI=1S/C3H4/c1-3-2/h1H,2H3
C3H3               ! propargyl                  DITHIFQMPPCBCU-UHFFFAOYSA-N       InChI=1S/C3H3/c1-3-2/h1H,2H2
C3H2               ! 1-propynyl                 LPUFMQSFYARLPQ-UHFFFAOYSA-N       InChI=1S/C3H2/c1-3-2/h1H2
C2H4               ! ethylene                   VGGSQFUCUMXWEO-UHFFFAOYSA-N       InChI=1S/C2H4/c1-2/h1-2H2
C2H3               ! vinyl                      ORGHESHFQPYLAO-UHFFFAOYSA-N       InChI=1S/C2H3/c1-2/h1H/2H2
C2H2               ! acetylene                  HSFWRNGVRCDJHI-UHFFFAOYSA-N       InChI=1S/C2H2/c1-2/h1-2H
H2CC               ! vinylidene                 SNVLJLYUUXKWOJ-UHFFFAOYSA-N       InChI=1S/C2H2/c1-2/h1H2
C2H                ! ethynyl                    XEHVFKKSDRMODV-UHFFFAOYSA-N       InChI=1S/C2H/c1-2/h1H
CH4                ! methane
CH3                ! methyl                     WCYWZMWISLQXQU-UHFFFAOYSA-N       InChI=1S/CH3/h1H3
CH2(s)             ! singlet carbene            HZVOZRGWRWCICA-UHFFFAOYSA-N       InChI=1S/CH2/h1H2
CH                 ! 
H2                 ! hydrogen                   UFHFLCQGNIYNRP-UHFFFAOYSA-N       InChI=1S/H2/h1H
H                  ! hydrogen-atom              YZCKVEUIGOORGS-UHFFFAOYSA-N       InChI=1S/H
Ar                 ! argon                      XKRFYHLGVUSROY-UHFFFAOYSA-N       InChI=1S/Ar
Kr                 ! krypton                    DNNSSWSSYDEUBZ-UHFFFAOYSA-N       InChI=1S/Kr
Ne                 ! neon                       GKAOGPIIYCISHV-UHFFFAOYSA-N       InChI=1S/Ne
END


THERMO ALL
   300.000  1000.000  6000.000
!
C12H10 biphenyl   g 8/00C  12H  10          G   200.000  6000.000 1000.00      1
 2.28963620e+01 3.68453189e-02-1.35016357e-05 2.20802787e-09-1.33358137e-13    2
 1.07395923e+04-1.00509573e+02 1.94600056e-01 5.35259888e-02 8.55000841e-05    3
-1.63903525e-07 7.29975666e-11 1.90021492e+04 2.72148992e+01                   4
!
C12H8 biphenylen  T 8/14C  12H   8          G   200.000  6000.000 1000.00      1
 2.14943346e+01 3.31238854e-02-1.20651081e-05 1.96677465e-09-1.18566034e-13    2
 3.97273863e+04-9.46644256e+01-9.26510662e-01 5.29144662e-02 7.56324038e-05    3
-1.51364316e-07 6.81452776e-11 4.77004412e+04 3.06183525e+01                   4
!
C8H8 styrene      T12/10C   8H   8          G   200.000  6000.000 1000.00      1
 1.55820120e+01 2.66093018e-02-9.56144870e-06 1.54378205e-09-9.24814823e-14    2
 1.03197319e+04-5.98622481e+01 1.12656107e+00 3.17044880e-02 7.38511452e-05    3
-1.29131757e-07 5.65307288e-11 1.57676346e+04 2.25936971e+01                   4
!
aC8H7 a-styryl    T12/07C   8H   7          G   200.000  6000.000 1000.00      1
 1.61678053e+01 2.34869894e-02-8.45465097e-06 1.36664033e-09-8.19389188e-14    2
 3.67356818e+04-5.98456163e+01 5.95576002e-01 4.31715811e-02 3.39695049e-05    3
-8.55153149e-08 4.02634981e-11 4.19756314e+04 2.57011560e+01                   4
!
bC8H7 b-styryl    T12/07C   8H   7          G   200.000  6000.000 1000.00      1
 1.60668682e+01 2.35522834e-02-8.47352807e-06 1.36928204e-09-8.20829942e-14    2
 3.98109546e+04-6.01469382e+01 2.78678850e-01 4.12517677e-02 4.27417783e-05    3
-9.66212597e-08 4.47818574e-11 4.52024803e+04 2.70544015e+01                   4
!
oC8H7 C6H4CH=CH2  T12/07C   8H   7          G   200.000  6000.000 1000.00      1
 1.57334515e+01 2.38965492e-02-8.60829763e-06 1.39223384e-09-8.35065775e-14    2
 4.08827573e+04-5.82476667e+01 1.17830774e+00 3.40765502e-02 5.85065530e-05    3
-1.10953244e-07 4.95222636e-11 4.61414992e+04 2.36053284e+01                   4
!
C8H2 linear       T11/07C   8H   2          G   200.000  6000.000 1000.00      1
 1.63586996e+01 1.08592595e-02-3.91654796e-06 6.34107033e-10-3.80413156e-14    2
 1.02366984e+05-5.56746562e+01-3.26701608e-01 9.43328676e-02-1.72876384e-04    3
 1.56816538e-07-5.40488426e-11 1.05392079e+05 2.20322120e+01                   4
!
C8H6 Phenylacetyl T12/06C   8H   6          G   200.000  6000.000 1000.00      1
 1.63582907e+01 2.11974105e-02-7.65817215e-06 1.24134505e-09-7.45327960e-14    2
 3.10375340e+04-6.22520227e+01-2.74707918e+00 7.78284438e-02-6.69709932e-05    3
 2.37972496e-08-8.43279765e-13 3.61131008e+04 3.54221257e+01                   4
!
! ATcT 2/21/2020
15HD 1,5-hexadiyne      C   6H   6          G   300.000  3000.000  898.15      1
 7.03617232e+00 3.08304983e-02-1.56559924e-05 3.85299360e-09-3.72307052e-13    2
 4.70288546e+04-8.83937043e+00 1.17107187e+00 5.01491805e-02-3.65578933e-05    3
 1.09324934e-08 5.48742620e-15 4.83567094e+04 2.03535280e+01                   4
!
! ATcT 2/21/2020
34DMCB 3,4-dimethylenec C   6H   6          G   300.000  3000.000  904.14      1
 5.98209397e+00 3.31734439e-02-1.73680684e-05 4.38640389e-09-4.33142339e-13    2
 3.74285327e+04-8.94212746e+00-2.16685517e+00 5.60100620e-02-3.33294848e-05    3
-1.18423724e-11 5.25358303e-12 3.94422124e+04 3.25376675e+01                   4
!
! ATcT 2/21/2020 skips before
Fulvene hihosilver      C   6H   6          G   300.000  3000.000  884.56      1
 4.57626928e+00 3.57844055e-02-1.92593524e-05 4.99099950e-09-5.04211214e-13    2
 2.43885046e+04-1.77678175e+00-3.98662925e+00 6.02892716e-02-3.67043816e-05    3
-3.25336720e-11 6.05151614e-12 2.64595517e+04 4.16277071e+01                   4
!
Benzene ATcT 2/21/2020  C   6H   6          G   300.000  3000.000  894.10      1
 3.71970092e+00 3.67098514e-02-1.95969797e-05 5.02685209e-09-5.02544326e-13    2
 6.87201291e+03-2.85622592e-01-3.07380826e+00 4.60607126e-02 1.90700171e-08    3
-3.59248411e-08 1.83094104e-11 8.92781957e+03 3.64318638e+01                   4
!
! ATcT 2/21/2020
13HD5Y 1,3-hexadiene-5- C   6H   6          G   300.000  3000.000  917.79      1
 8.28838349e+00 2.73908462e-02-1.24784121e-05 2.65868865e-09-2.14774317e-13    2
 3.75890624e+04-1.60722597e+01-1.96454869e-04 5.07304337e-02-2.97219662e-05    3
-3.85149944e-12 4.64902488e-12 3.96487542e+04 2.61371579e+01                   4
!
! ATcT 2/21/2020
12HD5Y 1,2-hexadiene-5- C   6H   6          G   300.000  3000.000  959.81      1
 6.75018002e+00 3.16900448e-02-1.63432080e-05 4.07781140e-09-3.98800682e-13    2
 4.69133276e+04-6.43289287e+00-4.00669431e-01 5.82773435e-02-5.28777031e-05    3
 2.59740053e-08-5.19674796e-12 4.84342359e+04 2.85441299e+01                   4
!
! ATcT 2/21/2020
2E13BD 2-ethynyl-1,3-bu C   6H   6          G   300.000  3000.000  908.40      1
 1.11158149e+01 2.38421868e-02-1.07996778e-05 2.32643921e-09-1.93486446e-13    2
 3.71852358e+04-3.23962818e+01-2.67231564e+00 6.92366412e-02-6.04538826e-05    3
 2.01917811e-08 3.40771673e-15 4.03221548e+04 3.62773943e+01                   4
!
C6H5 phenyl radi  T07/10C   6H   5          G   200.000  6000.000 1000.00      1
 1.09540673e+01 1.82072569e-02-6.63331157e-06 1.08125690e-09-6.51736617e-14    2
 3.51098413e+04-3.64320659e+01 4.91024498e-01 1.72669813e-02 7.02556406e-05    3
-1.13389805e-07 4.89202543e-11 3.92340510e+04 2.42505364e+01                   4
!
cisC6H4 cis-1,5   A02/05C   6H   4          G   200.000  6000.000 1000.00      1
 1.22388926e+01 1.36279082e-02-4.80715345e-06 7.66746640e-10-4.55210640e-14    2
 5.81401255e+04-3.70117245e+01-4.36293187e-01 6.12732353e-02-7.68492543e-05    3
 5.18458875e-08-1.40527024e-11 6.10383325e+04 2.53964956e+01                   4
!
oC6H4 o-benzyne   A02/05C   6H   4          G   200.000  6000.000 1000.00      1
 1.05707063e+01 1.56860613e-02-5.68267148e-06 9.22956737e-10-5.54966417e-14    2
 5.04976657e+04-3.32563927e+01 7.21604591e-01 2.47976151e-02 3.16372209e-05    3
-6.53230986e-08 2.96082142e-11 5.39797980e+04 2.16733825e+01                   4
!
C6H3 CH2=C=C=C=C=CT10/11C   6H   3          G   200.000  6000.000 1000.00      1
 1.20132339e+01 1.14461128e-02-4.08884040e-06 6.57753914e-10-3.92832116e-14    2
 8.25892145e+04-3.35118700e+01 1.50089155e+00 5.45901804e-02-7.88221454e-05    3
 6.27969099e-08-2.00768594e-11 8.49133510e+04 1.76237455e+01                   4
!
C6H2 triacetylen  T 8/10C   6H   2          G   200.000  6000.000 1000.00      1
 1.25237986e+01 8.78597449e-03-3.13663802e-06 5.04347263e-10-3.01110703e-14    2
 7.97838798e+04-3.88501187e+01-5.94408010e-01 7.46613698e-02-1.35848115e-04    3
 1.22198283e-07-4.17697584e-11 8.21259933e+04 2.21178523e+01                   4
!
C6H T11/07              C   6H   1          G   200.000  6000.000 1000.00      1
 1.16156848e+01 7.15667038e-03-2.60557304e-06 4.24485063e-10-2.55749647e-14    2
 1.16137629e+05-3.23417577e+01 9.05835416e-01 6.07760651e-02-1.12133809e-04    3
 1.02799034e-07-3.57814333e-11 1.18104727e+05 1.75980990e+01                   4
!
C4H5 1-Butayn-4yl T10/13C   4H   5          G   200.000  6000.000 1000.00      1
 9.14742675e+00 1.31171343e-02-4.58508051e-06 7.26399139e-10-4.29081515e-14    2
 4.14822768e+04-2.01678929e+01 1.19684515e+00 4.06756963e-02-4.17819232e-05    3
 2.33234920e-08-5.05113871e-12 4.34048978e+04 1.95123319e+01                   4
!
C4H4 CYbutadiene  T10/06C   4H   4          G   200.000  6000.000 1000.00      1
 6.15799403e+00 1.38046928e-02-4.89065781e-06 7.82030467e-10-4.64999095e-14    2
 4.88765056e+04-1.02472098e+01 1.66450475e+00 1.28883888e-02 3.00130083e-05    3
-5.09682379e-08 2.22098957e-11 5.06798795e+04 1.59431761e+01                   4
!
! 1 butene-3-yne, vinylacetylene
! bC4H4 1-butene-3  T06/04C  4.H  4.   0.   0.G   200.000  6000.000 1000.        1
!  7.98456038E+00 1.20558816E-02-4.23587475E-06 6.73646140E-10-3.99059864E-14    2
!  3.11993029E+04-1.67958975E+01 1.37368786E+00 2.88801256E-02-1.46863874E-05    3
! -3.91045446E-09 4.78133572E-12 3.30633344E+04 1.75941274E+01 3.46213066E+04    4
!  Was using C4H3 E-1yl Radical but need to check if including
C4H3 E-1yl RadicalT06/04C   4H   3          G   200.000  6000.000 1000.00      1
 8.44631306e+00 9.07291526e-03-3.18681201e-06 5.06725048e-10-3.00149855e-14    2
 6.20007365e+04-1.77938854e+01 5.54263934e-01 3.86185425e-02-4.70818280e-05    3
 3.06240321e-08-7.90588421e-12 6.37974910e+04 2.10542043e+01                   4
!
!C4H3 i-2yl Rad    T06/04C  4.H  3.   0.   0.G   200.000  6000.000 1000.        1
!  8.51181244E+00 9.03337808E-03-3.17602594E-06 5.05276458E-10-2.99379699E-14    2
!  5.71046116E+04-1.51017769E+01 3.37964170E+00 2.70498840E-02-2.90761572E-05    3
!  1.83027765E-08-4.81164203E-12 5.83688723E+04 1.05464883E+01 6.03558069E+04    4
C4H2 diacetylene  T 2/16C   4H   2          G   200.000  6000.000 1000.00      1
 8.65615648e+00 6.74465042e-03-2.36868410e-06 3.76553454e-10-2.22995205e-14    2
 5.22459295e+04-2.18462806e+01-5.02389168e-01 5.25164044e-02-9.29945578e-05    3
 8.17206506e-08-2.73537313e-11 5.38574848e+04 2.06780532e+01                   4
!
C4H T11/07              C   4H   1          G   200.000  6000.000 1000.00      1
 7.71800442e+00 5.12536823e-03-1.83737720e-06 2.96241205e-10-1.77194924e-14    2
 9.10681562e+04-1.51617127e+01 9.38092844e-01 3.85919898e-02-6.86754710e-05    3
 6.13264695e-08-2.08965640e-11 9.23123334e+04 1.65009843e+01                   4
!
C4 triplet       T05/09 C   4               G   200.000  6000.000 1000.00      1
 5.82677899e+00 5.83329662e-03-2.15836958e-06 3.43725387e-10-2.02423736e-14    2
 1.25415411e+05-4.21229950e+00 3.68513415e+00 1.84222993e-02-3.11974431e-05    3
 2.96449807e-08-1.07297820e-11 1.25758840e+05 5.42249286e+00                   4
!
a-C3H4 allene     L 8/89C   3H   4          G   200.000  6000.000 1000.00      1
 6.31687220e+00 1.11337280e-02-3.96293780e-06 6.35642380e-10-3.78755400e-14    2
 2.01174950e+04-1.09957660e+01 2.61304450e+00 1.21225750e-02 1.85398800e-05    3
-3.45251490e-08 1.53350790e-11 2.15415670e+04 1.02261390e+01                   4
!
p-C3H4 propyne    T 2/90C   3H   4          G   200.000  6000.000 1000.00      1
 6.02524000e+00 1.13365420e-02-4.02233910e-06 6.43760630e-10-3.82996350e-14    2
 1.96209420e+04-8.60437850e+00 2.68038690e+00 1.57996510e-02 2.50705960e-06    3
-1.36576230e-08 6.61542850e-12 2.08023740e+04 9.87693510e+00                   4
!
C3H3 propargyl    T 7/11C   3H   3          G   200.000  6000.000 1000.00      1
 7.14221719e+00 7.61902211e-03-2.67460030e-06 4.24914904e-10-2.51475443e-14    2
 3.95709594e+04-1.25848690e+01 1.35110873e+00 3.27411291e-02-4.73827407e-05    3
 3.76310220e-08-1.18541128e-11 4.07679941e+04 1.52058598e+01                   4
!
C3H2 1-propynyl   T 6/16C   3H   2          G   200.000  6000.000 1000.00      1
 6.67324582e+00 5.57729100e-03-1.99180291e-06 3.20289423e-10-1.91216473e-14    2
 6.42843566e+04-1.03146324e+01 2.43417310e+00 1.73013088e-02-1.18294142e-05    3
 1.02757825e-09 1.62625574e-12 6.54347265e+04 1.15155251e+01                   4
!
! C2H4 <g> ATcT ver. 1.122, DHf298 = 52.45  0.13 kJ/mol - fit JAN17
C2H4 ethylene     ATcT3EC   2H   4          G   200.000  6000.000 1000.00      1
 4.14446010e+00 1.02648277e-02-3.61246996e-06 5.74008727e-10-3.39295896e-14    2
 4.19059383e+03-1.14778318e+00 3.65150713e+00-5.35067462e-03 5.16486118e-05    3
-6.36868930e-08 2.50743457e-11 5.11450775e+03 5.38560851e+00                   4
!
! C2H3 <g> ATcT ver. 1.122, DHf298 = 296.91  0.33 kJ/mol - fit JAN17
C2H3 vinyl radi   ATcT3EC   2H   3          G   200.000  6000.000 1000.00      1
 4.37211201e+00 7.46869010e-03-2.64715570e-06 4.22753257e-10-2.44958401e-14    2
 3.38051964e+04 4.28771726e-01 3.12502174e+00 2.35136801e-03 2.36803425e-05    3
-3.35092391e-08 1.39444106e-11 3.45243318e+04 8.81537658e+00                   4
!
! HCCH <g> ATcT ver. 1.122, DHf298 = 228.27  0.13 kJ/mol - fit JAN17
C2H2 acetylene    ATcT3EC   2H   2          G   200.000  6000.000 1000.00      1
 4.66165760e+00 4.88861739e-03-1.61257351e-06 2.48284097e-10-1.39736824e-14    2
 2.57695270e+04-4.01062351e+00 6.26263508e-01 2.47263532e-02-3.89555894e-05    3
 3.16484975e-08-9.87351295e-12 2.64555796e+04 1.46968104e+01                   4
!
! CCH2 <g> ATcT ver. 1.122, DHf298 = 412.20  0.33 kJ/mol - fit JAN17
H2CC vinylidene   ATcT3EC   2H   2          G   200.000  6000.000 1000.00      1
 4.47847876e+00 4.84707787e-03-1.76213069e-06 2.92788093e-10-1.76554272e-14    2
 4.79490021e+04-7.84806167e-02 3.78897979e+00 5.91794674e-03-1.08086175e-06    3
-1.85638085e-09 1.06887466e-12 4.81959632e+04 3.71766330e+00                   4
!
C2H ethynyl Rad   T 5/10C   2H   1          G   200.000  6000.000 1000.00      1
 3.66270248e+00 3.82492252e-03-1.36632500e-06 2.13455040e-10-1.23216848e-14    2
 6.71683790e+04 3.92205792e+00 2.89867676e+00 1.32988489e-02-2.80733327e-05    3
 2.89484755e-08-1.07502351e-11 6.70616050e+04 6.18547632e+00                   4
!
! CH4 <g> ATcT ver. 1.122, DHf298 = -74.519  0.057 kJ/mol - fit JAN17
CH4 ATcT3E              C   1H   4          G   200.000  6000.000 1000.00      1
 1.68377091e+00 1.00130251e-02-3.31267639e-06 5.30233546e-10-3.13372430e-14    2
-1.00187792e+04 9.71477402e+00 5.00701913e+00-1.26484158e-02 4.66821073e-05    3
-4.59210565e-08 1.57633618e-11-1.02223522e+04-4.04227377e+00                   4
!
! CH3 <g> ATcT ver. 1.122, DHf298 = 146.374  0.080 kJ/mol - fit JAN17
CH3 ATcT3E              C   1H   3          G   200.000  6000.000 1000.00      1
 2.92198336e+00 5.37478625e-03-1.99748367e-06 2.97584806e-10-1.71860088e-14    2
 1.65446753e+04 5.25396822e+00 3.61264389e+00 3.09209041e-03 9.25474611e-07    3
-1.65776770e-09 6.07243533e-13 1.63849955e+04 1.79994780e+00                   4
!
! CH2 <g, singlet> ATcT ver. 1.122, DHf298 = 429.03  0.13 kJ/mol - fit JAN17
CH2(s) ATcT3E           C   1H   2          G   200.000  6000.000 1000.00      1
 2.86931299e+00 3.39756979e-03-1.00599964e-06 1.50562822e-10-8.61237607e-15    2
 5.06285244e+04 5.53163503e+00 4.18489675e+00-2.16396813e-03 7.68523621e-06    3
-5.98243427e-09 1.67910304e-12 5.03923371e+04-7.17772105e-01                   4
!
! CH <g> ATcT ver. 1.122, DHf298 = 596.12  0.11 kJ/mol - fit JAN17
CH ATcT3E               C   1H   1          G   200.000  6000.000 1000.00      1
 2.74988924e+00 1.36248089e-03-2.71161485e-07 2.47828427e-11-1.18067699e-15    2
 7.08999411e+04 6.13979299e+00 3.49602032e+00 2.77423807e-04-1.57433829e-06    3
 3.07038632e-09-1.40468135e-12 7.06500301e+04 2.05802158e+00                   4
!
! H2 <g> ATcT ver. 1.122, DHf298 = 0.000  0.000 kJ/mol - fit JAN17
H2 REF ELEMENT    ATcT3EH   2               G   200.000  6000.000 1000.00      1
 2.90207649e+00 8.68992581e-04-1.65864430e-07 1.90851899e-11-9.31121789e-16    2
-7.97948726e+02-8.45591320e-01 2.37694204e+00 7.73916922e-03-1.88735073e-05    3
 1.95517114e-08-7.17095663e-12-9.21173081e+02 5.47184736e-01                   4
!
! H <g> ATcT ver. 1.122, DHf298 = 217.998  0.000 kJ/mol - fit JAN17
H ATcT3E                H   1               G   200.000  6000.000 1000.00      1
 2.49985211e+00 2.34582548e-07-1.16171641e-10 2.25708298e-14-1.52992005e-18    2
 2.54738024e+04-4.45864645e-01 2.49975925e+00 6.73824499e-07 1.11807261e-09    3
-3.70192126e-12 2.14233822e-15 2.54737665e+04-4.45574009e-01                   4
!
! Ar <g> ATcT ver. 1.122, DHf298 = 0.000  0.000 kJ/mol - fit JAN17
Ar REF ELEMENT    ATcT3EAr  1               G   200.000  6000.000 1000.00      1
 2.49989176e+00 1.56134837e-07-7.76108557e-11 1.52928085e-14-1.05304493e-18    2
-7.45328403e+02 4.38029835e+00 2.49988611e+00 2.13037960e-07 8.97320772e-10    3
-2.31395752e-12 1.30201393e-15-7.45354481e+02 4.38024367e+00                   4
!
Kr REF ELEMENT    g 8/97Kr  1               G   200.000  6000.000 1000.00      1
 2.50001436e+00-2.78190281e-08 1.74071629e-11-4.31400304e-15 3.66743374e-19    2
-7.45380247e+02 5.49087778e+00 2.50000000e+00 0.00000000e+00 0.00000000e+00    3
 0.00000000e+00 0.00000000e+00-7.45375000e+02 5.49095651e+00                   4
!
Ne REF ELEMENT    g 5/97Ne  1               G   200.000  6000.000 1000.00      1
 2.50000000e+00 0.00000000e+00 0.00000000e+00 0.00000000e+00 0.00000000e+00    2
-7.45375000e+02 3.35532272e+00 2.50000000e+00 0.00000000e+00 0.00000000e+00    3
 0.00000000e+00 0.00000000e+00-7.45375000e+02 3.35532272e+00                   4
END


REACTIONS  CAL/MOLE  MOLES
! ===============================================================================================================================================================================================
! Reaction                                   A                 N                Ea            Author           Reference/DOI                       Comment
! ===============================================================================================================================================================================================
! ===============================================================================
! Styrene Reactions
! ===============================================================================
! Unimolecular Initiation -------------------------------------------------------
C8H8 <=> Benzene + H2CC                             1.3735815E+011    0.0000000E+000    7.7960167E+004    ! PW               This study
C8H8 <=> oC6H4 + C2H4                               3.9793051E+038   -7.4952954E+000    8.1919300E+004    ! PW               This study
C8H8 <=> aC8H7 + H                                  1.1172959E+016    0.0000000E+000    1.1940000E+005    ! PW               This study
! C8H8 = bC8H7 + H                       5.0000000E+015     0.0000000E+00    1.0940000E+05    ! PW               This study
! C8H8 = oC8H7 + H                       5.0000000E+015     0.0000000E+00    1.0940000E+05    ! PW               This study
! C8H8 = C6H5 + C2H3                     3.1600000E+017     0.0000000E+00    1.2000000E+05    ! PW               This study
!  Styrene + Radical Reactions ---------------------------------------------------
C8H8 + H <=> aC8H7 + H2                             1.2670000E+007    1.9300000E+000    1.0460000E+004    ! Chaumeix         10.1016/j.combustflame.2016.08.026  Estimated from C3H6+H (JSF)
C8H8 + H <=> bC8H7 + H2                             2.5350000E+007    1.9300000E+000    1.2951000E+004    ! Richter          10.1016/j.combustflame.2005.07.019  k*1/2 Richter note: analogous C2H4 from 10.1021/jp9606568
C8H8 + H <=> oC8H7 + H2                             3.4653804E+014    0.0000000E+000    1.6110265E+004    ! PW               This study                          k(Benzene + H = C6H5 + H2)
C8H8 + H <=> Benzene + C2H3                         2.4000000E+013    0.0000000E+000    5.1230000E+003    ! Dagaut           10.1016/j.proci.2010.05.013         NEW: IPSO addition (86ROB/TSA*DAG*2 id toluen 06/10/2000)
C4H5 + C4H4 <=> C8H8 + H                            3.1600000E+011    0.0000000E+000    3.7000000E+003    ! Dagaut           10.1016/j.proci.2010.05.013         NEW: k(buta-1/3-diene + propyne)
C8H8 + CH3 <=> aC8H7 + CH4                          7.8000000E+006    2.0000000E+000    5.2346000E+003    ! Chaumeix         10.1016/j.combustflame.2016.08.026  adjusted based on thermo data
C8H8 + CH3 => bC8H7 + CH4                           1.5610000E+005    2.0000000E+000    1.1393600E+004    ! Chaumeix         10.1016/j.combustflame.2016.08.026  CRECK for c2h4/2
C8H8 + CH3 => oC8H7 + CH4                           1.6000000E+012    0.0000000E+000    1.5000000E+004    ! Chaumeix         10.1016/j.combustflame.2016.08.026  as toluene
C8H8 + H => C6H5 + C2H4                             2.4450000E+037   -6.3100000E+000    3.1672780E+004    ! Chaumeix         10.1016/j.combustflame.2016.08.026  Tokmakov and Lin 2004 JPCA, *1.5
C6H5 + C2H4 => C8H8 + H                             5.4300000E+028   -4.2400000E+000    2.3866000E+004    ! Chaumeix         10.1016/j.combustflame.2016.08.026  Tokmakov and Lin 2004 JPCA, *1.5
! Styrl Isomerization Reactions -------------------------------------------------
bC8H7 + H <=> aC8H7 + H                             1.0000000E+014    0.0000000E+000    0.0000000E+000    ! Miller           10.1016/0010-2180(92)90124-8        NEW: k(HCCHCCH+H=H2CCCCH+H)
bC8H7 => aC8H7                                      4.8977882E+012    4.5000000E-001    4.5740000E+004    ! Lin              10.1021/ja0301121                   1 atm?
aC8H7 => bC8H7                                      6.6069345E+013    1.4000000E-001    5.3120000E+004    ! Lin              10.1021/ja0301121
bC8H7 => oC8H7                                      2.0417379E+010    7.0000000E-001    2.7500000E+004    ! Lin              10.1021/ja0301121
oC8H7 => bC8H7                                      4.5708819E+009    8.1000000E-001    2.6270000E+004    ! Lin              10.1021/ja0301121
! Styrl Unimolecular Decomposition
bC8H7 <=> C8H6 + H                                  3.8018940E+011    8.2000000E-001    3.8910000E+004    ! Lin              10.1021/ja0301121
aC8H7 <=> C8H6 + H                                  1.2302688E+013    5.5000000E-001    4.2580000E+004    ! Lin              10.1021/ja0301121
C6H5 + C2H2 <=> aC8H7                               8.6000000E+044   -1.0500000E+001    1.3145315E+004    ! PW               This study                           10 atm, estimated from (C6H5+C2H2 = bC8H7)
                          PLOG /  2.6315789E-002    8.6000000E+044   -1.0500000E+001    1.3145315E+004 /
                          PLOG /  5.2631579E-002    1.4000000E+043   -9.8700000E+000    1.2906310E+004 /
                          PLOG /  1.0000000E+000    6.7000000E+034   -7.0400000E+000    1.0994264E+004 /
                          PLOG /  1.0000000E+001    2.3000000E+027   -4.5600000E+000    9.0822180E+003 /
C6H5 + C2H2 <=> bC8H7                               8.6000000E+044   -1.0500000E+001    1.3145315E+004    ! Bozzelli         10.1021/jp002428q                    10 atm
                          PLOG /  2.6315789E-002    8.6000000E+044   -1.0500000E+001    1.3145315E+004 /
                          PLOG /  5.2631579E-002    1.4000000E+043   -9.8700000E+000    1.2906310E+004 /
                          PLOG /  1.0000000E+000    6.7000000E+034   -7.0400000E+000    1.0994264E+004 /
                          PLOG /  1.0000000E+001    2.3000000E+027   -4.5600000E+000    9.0822180E+003 /
C6H5 + C2H2 <=> oC8H7                               7.9000000E+051   -1.2410000E+001    1.7686424E+004    ! Bozzelli         10.1021/jp002428q                    10 atm
                          PLOG /  2.6315789E-002    7.9000000E+051   -1.2410000E+001    1.7686424E+004 /
                          PLOG /  5.2631579E-002    6.1000000E+050   -1.1970000E+001    1.8164436E+004 /
                          PLOG /  1.0000000E+000    1.1000000E+041   -8.6100000E+000    1.8164436E+004 /
                          PLOG /  1.0000000E+001    5.2000000E+027   -4.3800000E+000    1.5774379E+004 /
C6H5 + C2H <=> C8H6                                 1.2000000E+027   -4.2200000E+000    7.2000000E+003    ! Chaumeix         10.1016/j.combustflame.2016.08.026  Source: Refer to c6h5+c2h3=c6h5c2h3  1997 Wang&Frenklach RRKm
!  ===============================================================================
!  Benzene Reactions
!  ===============================================================================
!  useful sources:
!  Ranzi 10.1016/j.combustflame.2013.02.013
!        10.1016/S0082-0784(85)80569-5
!  Isomerization------------------------------------------------------------------
! C3H3 + C3H3 = 15HD                     2.9448269E+013    -2.7800000E-01    3.0324737E
2E13BD <=> Fulvene                                  5.7543994E+076   -1.8670000E+001    9.5531000E+004    ! Miller           10.1021/jp030375h
                          PLOG /  3.9473684E-002    5.7543994E+076   -1.8670000E+001    9.5531000E+004 /
                          PLOG /  1.0000000E+000    2.3442288E+056   -1.2550000E+001    8.6405000E+004 /
                          PLOG /  1.0000000E+001    4.8977882E+026   -4.1440000E+000    6.5424000E+004 /
2E13BD <=> Benzene                                  6.7608298E+098   -2.4580000E+001    1.2231000E+005    ! Miller           10.1021/jp030375h
                          PLOG /  3.9473684E-002    6.7608298E+098   -2.4580000E+001    1.2231000E+005 /
                          PLOG /  1.0000000E+000    1.6218101E+053   -1.1340000E+001    1.0021000E+005 /
                          PLOG /  1.0000000E+001    2.8183829E+051   -1.0680000E+001    1.0695000E+005 /
Fulvene <=> Benzene                                 5.6234133E+081   -1.9360000E+001    1.2150000E+005    ! Miller           10.1021/jp030375h
                          PLOG /  3.9473684E-002    5.6234133E+081   -1.9360000E+001    1.2150000E+005 /
                          PLOG /  1.0000000E+000    1.4454398E+045   -8.9000000E+000    9.6999000E+004 /
                          PLOG /  1.0000000E+001    2.9512092E+031   -4.9700000E+000    8.8465000E+004 /
15HD <=> 34DMCB                                     6.5000000E+010    0.0000000E+000    3.3360000E+004    ! Tranter          10.1021/jp037310z