"""
Thermo data from BURCAT 8 AUG 2018
"""

units(length='cm', time='s', quantity='mol', act_energy='cal/mol')

ideal_gas(name='gas',
          elements="C H O N Ar Kr He",
          species="""Ar        He        Kr        N2        H2
                     H         CH3       CH2O      C2H2      C2H3
                     C2H4      C2H5      C2H6      C3H6      nC3H7
                     iC3H7     C3H8      C3H6O     CH3COCH3  nC3H7O
                     iC3H7O    nC3H7ONO  iC3H7ONO  nC3H7NO3  iC3H7NO3
                     C4H6      nC4H10    iC4H10    nC4H9O    iC4H9O
                     nC4H9ONO  iC4H9ONO  C5H6O     cC6H10    C6H14
                     NO        NO2""",
          reactions='all',
          initial_state=state(temperature=300.0, pressure=OneAtm))

#-------------------------------------------------------------------------------
# Species data
#-------------------------------------------------------------------------------

species(name='Ar',
        atoms='Ar:1',
        thermo=(NASA([200.00, 1000.00],
                     [ 2.50000000E+00,  0.00000000E+00,  0.00000000E+00,
                       0.00000000E+00,  0.00000000E+00, -7.45375000E+02,
                       4.37967491E+00]),
                NASA([1000.00, 6000.00],
                     [ 2.50000000E+00,  0.00000000E+00,  0.00000000E+00,
                       0.00000000E+00,  0.00000000E+00, -7.45375000E+02,
                       4.37967491E+00])),
        note='REFELEMENTg5/97')

species(name='He',
        atoms='He:1',
        thermo=(NASA([200.00, 1000.00],
                     [ 2.50000000E+00,  0.00000000E+00,  0.00000000E+00,
                       0.00000000E+00,  0.00000000E+00, -7.45375000E+02,
                       9.28723974E-01]),
                NASA([1000.00, 6000.00],
                     [ 2.50000000E+00,  0.00000000E+00,  0.00000000E+00,
                       0.00000000E+00,  0.00000000E+00, -7.45375000E+02,
                       9.28723974E-01])),
        note='REFELEMENTg5/97')

species(name='Kr',
        atoms='Kr:1',
        thermo=(NASA([200.00, 1000.00],
                     [ 2.50000000E+00,  0.00000000E+00,  0.00000000E+00,
                       0.00000000E+00,  0.00000000E+00, -7.45375000E+02,
                       5.49095651E+00]),
                NASA([1000.00, 6000.00],
                     [ 2.50001436E+00, -2.78190281E-08,  1.74071629E-11,
                      -4.31400304E-15,  3.66743374E-19, -7.45380247E+02,
                       5.49087778E+00])),
        note='REFELEMENTg8/97')

species(name='N2',
        atoms='N:2',
        thermo=(NASA([200.00, 1000.00],
                     [ 3.53100528E+00, -1.23660988E-04, -5.02999433E-07,
                       2.43530612E-09, -1.40881235E-12, -1.04697628E+03,
                       2.96747038E+00]),
                NASA([1000.00, 6000.00],
                     [ 2.95257637E+00,  1.39690040E-03, -4.92631603E-07,
                       7.86010195E-11, -4.60755204E-15, -9.23948688E+02,
                       5.87188762E+00])),
        note='REFELEMENTG8/02')

species(name='H2',
        atoms='H:2',
        thermo=(NASA([200.00, 1000.00],
                     [ 2.34433112E+00,  7.98052075E-03, -1.94781510E-05,
                       2.01572094E-08, -7.37611761E-12, -9.17935173E+02,
                       6.83010238E-01]),
                NASA([1000.00, 6000.00],
                     [ 2.93286575E+00,  8.26608026E-04, -1.46402364E-07,
                       1.54100414E-11, -6.88804800E-16, -8.13065581E+02,
                      -1.02432865E+00])),
        note='REFELEMENTtpis78')

species(name='H',
        atoms='H:1',
        thermo=(NASA([200.00, 1000.00],
                     [ 2.50000000E+00,  0.00000000E+00,  0.00000000E+00,
                       0.00000000E+00,  0.00000000E+00,  2.54736600E+04,
                      -4.46682850E-01]),
                NASA([1000.00, 6000.00],
                     [ 2.50000000E+00,  0.00000000E+00,  0.00000000E+00,
                       0.00000000E+00,  0.00000000E+00,  2.54736600E+04,
                      -4.46682850E-01])),
        note='L6/94')

species(name='CH3',
        atoms='C:1 H:3',
        thermo=(NASA([200.00, 1000.00],
                     [ 3.65717970E+00,  2.12659790E-03,  5.45838830E-06,
                      -6.61810030E-09,  2.46570740E-12,  1.64227160E+04,
                       1.67353540E+00]),
                NASA([1000.00, 6000.00],
                     [ 2.97812060E+00,  5.79785200E-03, -1.97558000E-06,
                       3.07297900E-10, -1.79174160E-14,  1.65095130E+04,
                       4.72247990E+00])),
        note='METHYLRADICALIU0702')

species(name='CH2O',
        atoms='H:2 C:1 O:1',
        thermo=(NASA([200.00, 1000.00],
                     [ 4.79372312E+00, -9.90833322E-03,  3.73219990E-05,
                      -3.79285237E-08,  1.31772641E-11, -1.43791953E+04,
                       6.02798058E-01]),
                NASA([1000.00, 6000.00],
                     [ 3.16952665E+00,  6.19320560E-03, -2.25056366E-06,
                       3.65975660E-10, -2.20149458E-14, -1.45486831E+04,
                       6.04207898E+00])),
        note='FormaldehydeT5/11')

species(name='C2H2',
        atoms='C:2 H:2',
        thermo=(NASA([200.00, 1000.00],
                     [ 8.08679682E-01,  2.33615762E-02, -3.55172234E-05,
                       2.80152958E-08, -8.50075165E-12,  2.64289808E+04,
                       1.39396761E+01]),
                NASA([1000.00, 6000.00],
                     [ 4.65878489E+00,  4.88396667E-03, -1.60828888E-06,
                       2.46974544E-10, -1.38605959E-14,  2.57594042E+04,
                      -3.99838194E+00])),
        note='acetyleneg1/91')

species(name='C2H3',
        atoms='C:2 H:3',
        thermo=(NASA([200.00, 1000.00],
                     [ 3.36377642E+00,  2.65765722E-04,  2.79620704E-05,
                      -3.72986942E-08,  1.51590176E-11,  3.44749589E+04,
                       7.91510092E+00]),
                NASA([1000.00, 6000.00],
                     [ 4.15026763E+00,  7.54021341E-03, -2.62997847E-06,
                       4.15974048E-10, -2.45407509E-14,  3.38566380E+04,
                       1.72812235E+00])),
        note='VinylRadiATcT/A')

species(name='C2H4',
        atoms='C:2 H:4',
        thermo=(NASA([200.00, 1000.00],
                     [ 3.95920063E+00, -7.57051373E-03,  5.70989993E-05,
                      -6.91588352E-08,  2.69884190E-11,  5.08977598E+03,
                       4.09730213E+00]),
                NASA([1000.00, 6000.00],
                     [ 3.99182724E+00,  1.04833908E-02, -3.71721342E-06,
                       5.94628366E-10, -3.53630386E-14,  4.26865851E+03,
                      -2.69081762E-01])),
        note='g1/00')

species(name='C2H5',
        atoms='C:2 H:5',
        thermo=(NASA([200.00, 1000.00],
                     [ 4.24185905E+00, -3.56905235E-03,  4.82667202E-05,
                      -5.85401009E-08,  2.25804514E-11,  1.29690344E+04,
                       4.44703782E+00]),
                NASA([1000.00, 6000.00],
                     [ 4.32195633E+00,  1.23930542E-02, -4.39680960E-06,
                       7.03519917E-10, -4.18435239E-14,  1.21759475E+04,
                       1.71103809E-01])),
        note='ethylradicIU1/07')

species(name='C2H6',
        atoms='C:2 H:6',
        thermo=(NASA([200.00, 1000.00],
                     [ 4.29142572E+00, -5.50154901E-03,  5.99438458E-05,
                      -7.08466469E-08,  2.68685836E-11, -1.15222056E+04,
                       2.66678994E+00]),
                NASA([1000.00, 6000.00],
                     [ 4.04666411E+00,  1.53538802E-02, -5.47039485E-06,
                       8.77826544E-10, -5.23167531E-14, -1.24473499E+04,
                      -9.68698313E-01])),
        note='g8/88')

species(name='C3H6',
        atoms='C:3 H:6',
        thermo=(NASA([200.00, 1000.00],
                     [ 3.83464468E+00,  3.29078952E-03,  5.05228001E-05,
                      -6.66251176E-08,  2.63707473E-11,  7.88717123E+02,
                       7.53408013E+00]),
                NASA([1000.00, 6000.00],
                     [ 6.03870234E+00,  1.62963931E-02, -5.82130800E-06,
                       9.35936829E-10, -5.58603143E-14, -7.41715057E+02,
                      -8.43825992E+00])),
        note='propyleneg2/00')

species(name='nC3H7',
        atoms='C:3 H:7',
        thermo=(NASA([200.00, 1000.00],
                     [ 4.08211458E+00,  5.23240341E-03,  5.13554466E-05,
                      -6.99343598E-08,  2.81819493E-11,  1.04074558E+04,
                       8.39534919E+00]),
                NASA([1000.00, 6000.00],
                     [ 6.49636579E+00,  1.77337992E-02, -6.24898046E-06,
                       9.95389495E-10, -5.90199770E-14,  8.85973885E+03,
                      -8.56389710E+00])),
        note='n-propylA5/05')

species(name='iC3H7',
        atoms='C:3 H:7',
        thermo=(NASA([200.00, 1000.00],
                     [ 5.47421257E+00, -8.42536682E-03,  8.04607759E-05,
                      -9.49287824E-08,  3.59830971E-11,  9.04939013E+03,
                       3.40542323E+00]),
                NASA([1000.00, 6000.00],
                     [ 5.30597255E+00,  1.89854588E-02, -6.74315384E-06,
                       1.07993730E-09, -6.42785036E-14,  7.78748910E+03,
                      -2.23233935E+00])),
        note='i-propylA5/05')

species(name='C3H8',
        atoms='C:3 H:8',
        thermo=(NASA([200.00, 1000.00],
                     [ 4.21093013E+00,  1.70886504E-03,  7.06530164E-05,
                      -9.20060565E-08,  3.64618453E-11, -1.43810883E+04,
                       5.61004451E+00]),
                NASA([1000.00, 6000.00],
                     [ 6.66919760E+00,  2.06108751E-02, -7.36512349E-06,
                       1.18434262E-09, -7.06914630E-14, -1.62754066E+04,
                      -1.31943379E+01])),
        note='g2/00')

species(name='C3H6O',
        atoms='C:3 H:6 O:1',
        thermo=(NASA([200.00, 1000.00],
                     [ 4.24529681E+00,  6.68296706E-03,  4.93337933E-05,
                      -6.71986124E-08,  2.67262347E-11, -2.41473007E+04,
                       6.90738560E+00]),
                NASA([1000.00, 6000.00],
                     [ 7.44085690E+00,  1.77301764E-02, -6.34081568E-06,
                       1.02040803E-09, -6.09461714E-14, -2.60055814E+04,
                      -1.44195446E+01])),
        note='PropionaldT05/10')

species(name='CH3COCH3',
        atoms='C:3 H:6 O:1',
        thermo=(NASA([200.00, 1000.00],
                     [ 5.55638920E+00, -2.83863547E-03,  7.05722951E-05,
                      -8.78130984E-08,  3.40290951E-11, -2.78325393E+04,
                       2.31960221E+00]),
                NASA([1000.00, 6000.00],
                     [ 7.29796974E+00,  1.75656913E-02, -6.31678065E-06,
                       1.02025553E-09, -6.10903592E-14, -2.95368927E+04,
                      -1.27591704E+01])),
        note='AcetoneATcTA')

species(name='nC3H7O',
        atoms='C:3 H:7 O:1',
        thermo=(NASA([200.00, 1000.00],
                     [ 4.21934640E+00,  7.38556641E-03,  6.02825529E-05,
                      -8.38680247E-08,  3.39623435E-11, -6.23491852E+03,
                       8.08139850E+00]),
                NASA([1000.00, 6000.00],
                     [ 8.38041157E+00,  1.95206120E-02, -6.97374143E-06,
                       1.12144919E-09, -6.69467831E-14, -8.48625211E+03,
                      -1.89916219E+01])),
        note='PropoxyradT07/10')

species(name='iC3H7O',
        atoms='C:3 H:7 O:1',
        thermo=(NASA([200.00, 1000.00],
                     [ 3.58381906E+00,  9.98483519E-03,  6.04218846E-05,
                      -8.75798110E-08,  3.58644103E-11, -7.61659748E+03,
                       9.48819708E+00]),
                NASA([1000.00, 6000.00],
                     [ 9.75648312E+00,  1.80073414E-02, -6.47125189E-06,
                       1.04515875E-09, -6.25932151E-14, -1.04736442E+04,
                      -2.82868993E+01])),
        note='iso-propoxT12/15')

species(name='nC3H7ONO',
        atoms='H:7 C:3 O:2 N:1',
        thermo=(NASA([100.00, 996.58],
                     [ 1.81324917E+00,  5.24743766E-02, -4.41896993E-05,
                       2.21131795E-08, -4.99902209E-12, -1.66762479E+04,
                       1.94108946E+01]),
                NASA([996.58, 5000.00],
                     [ 6.53155500E+00,  3.35364530E-02, -1.56854310E-05,
                       3.04518934E-09, -2.15682561E-13, -1.76166851E+04,
                      -3.33605617E+00])))

species(name='iC3H7ONO',
        atoms='H:7 C:3 O:2 N:1',
        thermo=(NASA([100.00, 1334.78],
                     [ 1.71413451E+00,  5.16432497E-02, -3.87555387E-05,
                       1.53804917E-08, -2.59390008E-12, -1.81910601E+04,
                       1.87121326E+01]),
                NASA([1334.78, 5000.00],
                     [ 9.40821031E+00,  2.85860081E-02, -1.28442206E-05,
                       2.43885674E-09, -1.69970207E-13, -2.02450370E+04,
                      -2.06291163E+01])))

species(name='nC3H7NO3',
        atoms='C:3 H:7 N:1 O:3',
        thermo=(NASA([200.00, 1000.00],
                     [ 4.69954084E+00,  1.74527499E-02,  6.53066388E-05,
                      -9.90514748E-08,  4.08918201E-11, -2.46082552E+04,
                       1.10308152E+01]),
                NASA([1000.00, 6000.00],
                     [ 1.33160310E+01,  2.33549847E-02, -8.72301675E-06,
                       1.43850757E-09, -8.72316125E-14, -2.84259961E+04,
                      -4.06290950E+01])),
        note='PropylNiT03/10')

species(name='iC3H7NO3',
        atoms='C:3 H:7 N:1 O:3',
        thermo=(NASA([200.00, 1000.00],
                     [ 3.78641559E+00,  3.48555531E-02,  1.65104819E-05,
                      -4.82506924E-08,  2.23728614E-11, -2.68599035E+04,
                       1.05974065E+01]),
                NASA([1000.00, 6000.00],
                     [ 1.43032214E+01,  2.16233097E-02, -7.84873295E-06,
                       1.27323650E-09, -7.64151528E-14, -3.05319763E+04,
                      -4.75339207E+01])),
        note='IPNT06/13')

species(name='C4H6',
        atoms='C:4 H:6',
        thermo=(NASA([200.00, 1000.00],
                     [ 4.10599669E+00,  5.05575563E-03,  5.83885454E-05,
                      -8.05950198E-08,  3.27447711E-11,  1.15092468E+04,
                       8.42978067E+00]),
                NASA([1000.00, 6000.00],
                     [ 7.62637466E+00,  1.72523403E-02, -6.09184911E-06,
                       9.70800102E-10, -5.76169721E-14,  9.55306395E+03,
                      -1.48325259E+01])),
        note='1.3-butadiT05/04')

species(name='nC4H10',
        atoms='C:4 H:10',
        thermo=(NASA([200.00, 1000.00],
                     [ 6.14474013E+00,  1.64500242E-04,  9.67848789E-05,
                      -1.25486208E-07,  4.97846257E-11, -1.75989467E+04,
                      -1.08058878E+00]),
                NASA([1000.00, 6000.00],
                     [ 9.44547835E+00,  2.57856620E-02, -9.23613194E-06,
                       1.48631762E-09, -8.87891206E-14, -2.01383773E+04,
                      -2.63477585E+01])),
        note='n-butaneg12/00')

species(name='iC4H10',
        atoms='C:4 H:10',
        thermo=(NASA([200.00, 1000.00],
                     [ 4.45479140E+00,  8.26058864E-03,  8.29886433E-05,
                      -1.14647616E-07,  4.64569994E-11, -1.84593929E+04,
                       4.92740653E+00]),
                NASA([1000.00, 6000.00],
                     [ 9.76991697E+00,  2.54997141E-02, -9.14142587E-06,
                       1.47328201E-09, -8.80799697E-14, -2.14052667E+04,
                      -3.00329670E+01])),
        note='isobutaneg8/00')

species(name='nC4H9O',
        atoms='C:4 H:9 O:1',
        thermo=(NASA([200.00, 1000.00],
                     [ 5.61811041E+00,  2.13096414E-03,  1.02735847E-04,
                      -1.34293799E-07,  5.26670215E-11, -9.21420279E+03,
                       5.86104936E+00]),
                NASA([1000.00, 6000.00],
                     [ 1.21282441E+01,  2.43644908E-02, -9.02471630E-06,
                       1.47949540E-09, -8.93697147E-14, -1.29796240E+04,
                      -3.75312729E+01])),
        note='N-ButoxyRT09/08')

species(name='iC4H9O',
        atoms='C:4 H:9 O:1',
        thermo=(NASA([200.00, 1000.00],
                     [ 3.80297372E+00,  1.56874209E-02,  6.81105412E-05,
                      -9.83346774E-08,  3.95261902E-11, -1.00832243E+04,
                       9.78963305E+00]),
                NASA([1000.00, 6000.00],
                     [ 1.16309708E+01,  2.47981574E-02, -9.01550536E-06,
                       1.46714720E-09, -8.83214518E-14, -1.37854612E+04,
                      -3.81956151E+01])),
        note='i-butoxyrA08/04')

species(name='nC4H9ONO',
        atoms='H:9 C:4 O:2 N:1',
        thermo=(NASA([100.00, 1008.87],
                     [ 1.19862126E+00,  6.68697575E-02, -5.66414896E-05,
                       2.83457482E-08, -6.35772379E-12, -1.95149514E+04,
                       2.38635708E+01]),
                NASA([1008.87, 5000.00],
                     [ 7.50910529E+00,  4.18496133E-02, -1.94410378E-05,
                       3.76335843E-09, -2.66125527E-13, -2.07882362E+04,
                      -6.63655986E+00])))

species(name='iC4H9ONO',
        atoms='H:9 C:4 O:2 N:1',
        thermo=(NASA([100.00, 1247.11],
                     [ 1.17675513E+00,  6.49583810E-02, -4.94831683E-05,
                       2.05721900E-08, -3.69997280E-12, -2.05998452E+04,
                       2.29530011E+01]),
                NASA([1247.11, 5000.00],
                     [ 9.57770607E+00,  3.80127755E-02, -1.70731921E-05,
                       3.24664274E-09, -2.26799319E-13, -2.26952066E+04,
                      -1.94318209E+01])))

species(name='C5H6O',
        atoms='C:5 H:6 O:1',
        thermo=(NASA([200.00, 1000.00],
                     [ 1.74116718E+00,  2.11853541E-02,  5.53311310E-05,
                      -9.43548096E-08,  4.11290324E-11, -1.12017632E+04,
                       1.85781008E+01]),
                NASA([1000.00, 6000.00],
                     [ 1.14238230E+01,  1.95554019E-02, -7.01016522E-06,
                       1.13044777E-09, -6.76322845E-14, -1.49209922E+04,
                      -3.70359684E+01])),
        note='2-MeFuranT3/12')

species(name='cC6H10',
        atoms='C:6 H:10',
        thermo=(NASA([200.00, 1000.00],
                     [ 2.36636823E+00,  1.06805227E-02,  1.18223934E-04,
                      -1.65681286E-07,  6.76137946E-11, -2.48250573E+03,
                       1.67688051E+01]),
                NASA([1000.00, 6000.00],
                     [ 1.17732584E+01,  3.09483545E-02, -1.12347470E-05,
                       1.82632297E-09, -1.09855802E-13, -7.20259047E+03,
                      -4.26551390E+01])),
        note='g1/93')

species(name='C6H14',
        atoms='C:6 H:14',
        thermo=(NASA([200.00, 1000.00],
                     [ 5.98759718E+00,  2.61324277E-02,  5.94131286E-05,
                      -8.78415279E-08,  3.48876704E-11, -2.44752605E+04,
                       1.08178238E+00]),
                NASA([1000.00, 6000.00],
                     [ 1.21074318E+01,  3.79781055E-02, -1.35513801E-05,
                       2.17470277E-09, -1.29564043E-13, -2.76970419E+04,
                      -3.78070624E+01])),
        note='2.3-DiMethT7/10')

species(name='NO',
        atoms='N:1 O:1',
        thermo=(NASA([200.00, 1000.00],
                     [ 4.21859896E+00, -4.63988124E-03,  1.10443049E-05,
                      -9.34055507E-09,  2.80554874E-12,  9.84509964E+03,
                       2.28061001E+00]),
                NASA([1000.00, 6000.00],
                     [ 3.26071234E+00,  1.19101135E-03, -4.29122646E-07,
                       6.94481463E-11, -4.03295681E-15,  9.92143132E+03,
                       6.36900518E+00])),
        note='RUS89')

species(name='NO2',
        atoms='N:1 O:2',
        thermo=(NASA([200.00, 1000.00],
                     [ 3.94403120E+00, -1.58542900E-03,  1.66578120E-05,
                      -2.04754260E-08,  7.83505640E-12,  2.89661800E+03,
                       6.31199190E+00]),
                NASA([1000.00, 6000.00],
                     [ 4.88475400E+00,  2.17239550E-03, -8.28069090E-07,
                       1.57475100E-10, -1.05108950E-14,  2.31649820E+03,
                      -1.17416950E-01])),
        note='L7/88')

#-------------------------------------------------------------------------------
# Reaction data
#-------------------------------------------------------------------------------

# Reaction 1
pdep_arrhenius('cC6H10 <=> C2H4 + C4H6',
               [(0.18, 'atm'), 1.820000e+102, -25.3, 115500.0],
               [(0.6, 'atm'), 2.340000e+96, -23.6, 111200.0],
               [(0.8, 'atm'), 3.715000e+15, 0.0, 65700.0])
# Reverse Diels-Alder rates from Kiefer and Shah. J Phys Chem 1987
# P-dep rates noted at midpoint of given valid range
# HPL rate applied in Tranter. et al. Rev Sci Inst 2007 for 600 Torr+

# Reaction 2
pdep_arrhenius('nC3H7ONO <=> nC3H7O + NO',
               [(0.079, 'atm'), 9.380000e+69, -17.39, 55886.36],
               [(0.16, 'atm'), 1.780000e+69, -17.06, 56095.0],
               [(0.32, 'atm'), 9.750000e+67, -16.57, 56104.93],
               [(1.0, 'atm'), 5.690000e+21, -1.6, 42637.05])
# Nitrite work from ANL (Randazzo. et al. ProCI 2018); guess HPL P value

# Reaction 3
pdep_arrhenius('iC4H9ONO <=> iC4H9O + NO',
               [(0.079, 'atm'), 4.140000e+76, -19.37, 58159.49],
               [(0.16, 'atm'), 6.590000e+74, -18.72, 58020.4],
               [(0.32, 'atm'), 5.190000e+72, -17.97, 57740.23],
               [(1.0, 'atm'), 3.920000e+21, -1.58, 42048.89])


# Nitrite work from ANL (Randazzo. et al. ProCI 2018); guess HPL P value

# Reaction 4
reaction('nC3H7O <=> CH2O + C2H5', [2.720000e+21, -2.45, 16968.98])

# Reaction 5
reaction('nC3H7O <=> C3H6O + H', [8.890000e+10, 0.75, 21058.23])

# Reaction 6
reaction('C2H4 + H <=> C2H5', [7.080000e+40, -8.79, 11558.38])

# Reaction 7
reaction('C2H4 + H <=> C2H3 + H2', [2.340000e+02, 3.62, 11266.29])

# Reaction 8
reaction('C2H2 + H <=> C2H3', [1.130000e+30, -5.92, 5891.46])

# Reaction 9
reaction('C2H5 + C2H5 <=> nC4H10', [7.520000e+14, -0.7, -3.18])

# Reaction 10
reaction('C2H5 + C2H5 <=> C2H4 + C2H6', [6.930000e+13, -0.7, -3.18])

# Reaction 11
reaction('C2H5 + H <=> C2H6', [5.450000e+13, 0.16, 0.0])

# Reaction 12
reaction('C2H5 + H <=> C2H4 + H2', [1.000000e+13, 0.0, 0.0])

# Reaction 13
reaction('iC4H9O <=> iC3H7 + CH2O', [5.350000e+22, 2.8, 15238.3])

# Reaction 14
reaction('C3H6 + H <=> iC3H7', [1.260000e+50, -11.6, 14300.44])

# Reaction 15
reaction('iC3H7 + iC3H7 <=> C6H14', [5.900000e+14, -0.86, -262.28])

# Reaction 16
reaction('iC3H7 + iC3H7 <=> C3H6 + C3H8', [3.830000e+14, -0.86, -262.28])

# Reaction 17
reaction('iC3H7 + H <=> C3H6 + H2', [3.610000e+12, 0.16, 0.0])

# Reaction 18
reaction('iC3H7 + H <=> C3H8', [1.660000e+13, 0.22, 0.0])
