THERMO
   200.000  1000.000  6000.000

C12H10 biphenyl   g 8/00C 12.H 10.   0.   0.G   200.000  6000.000 1000.        1
 2.28963620E+01 3.68453189E-02-1.35016357E-05 2.20802787E-09-1.33358137E-13    2
 1.07395923E+04-1.00509573E+02 1.94600056E-01 5.35259888E-02 8.55000841E-05    3
-1.63903525E-07 7.29975666E-11 1.90021492E+04 2.72148992E+01 2.19050792E+04    4
C12H8 biphenylen  T 8/14C 12.H  8.   0.   0.G   200.000  6000.000 1000.        1
 2.14943346E+01 3.31238854E-02-1.20651081E-05 1.96677465E-09-1.18566034E-13    2
 3.97273863E+04-9.46644256E+01-9.26510662E-01 5.29144662E-02 7.56324038E-05    3
-1.51364316E-07 6.81452776E-11 4.77004412E+04 3.06183525E+01 5.01773406E+04    4
C10H8 Naphthalene T 7/98C  10H   8    0    0G   200.000  6000.000 1000.        1
 1.86129884E+01 3.04494175E-02-1.11224825E-05 1.81615474E-09-1.09601281E-13    2
 8.91578988E+03-8.00230396E+01-1.04919475E+00 4.62970781E-02 7.07591636E-05    3
-1.38408111E-07 6.20475407E-11 1.59848987E+04 3.02121626E+01 1.81107678E+04    4
C10H7 Naphtyl rad T 7/98C  10H   7    0    0G   200.000  6000.000 1000.        1
 1.83535073E+01 2.77474314E-02-1.00885968E-05 1.64229575E-09-9.89002001E-14    2
 3.89261241E+04-7.48978150E+01-1.89559772E+00 5.83077290E-02 2.79388931E-05    3
-9.14375172E-08 4.46422302E-11 4.55409775E+04 3.52453263E+01 4.76546183E+04    4
C9H8 INDENE       T 9/96C   9H   8    0    0G   200.000  6000.000 1000.        1
 1.73186757E+01 2.89827586E-02-1.06050551E-05 1.73345448E-09-1.04679146E-13    2
 1.11514275E+04-7.15553836E+01-6.81899560E-01 4.16587045E-02 7.07413209E-05    3
-1.34308856E-07 5.99158843E-11 1.77050360E+04 2.97813474E+01 1.97411898E+04    4
C8H8 styrene      T12/10C  8.H  8.   0.   0.G   200.000  6000.000 1000.        1
 1.55820120E+01 2.66093018E-02-9.56144870E-06 1.54378205E-09-9.24814823E-14    2
 1.03197319E+04-5.98622481E+01 1.12656107E+00 3.17044880E-02 7.38511452E-05    3
-1.29131757E-07 5.65307288E-11 1.57676346E+04 2.25936971E+01 1.79366548E+04    4
bC8H7 b-styryl    T12/07C  8.H  7.   0.   0.G   200.000  6000.000 1000.        1
 1.60668682E+01 2.35522834E-02-8.47352807E-06 1.36928204E-09-8.20829942E-14    2
 3.98109546E+04-6.01469382E+01 2.78678850E-01 4.12517677E-02 4.27417783E-05    3
-9.66212597E-08 4.47818574E-11 4.52024803E+04 2.70544015E+01 4.73269020E+04    4
aC8H7 a-styryl    T12/07C  8.H  7.   0.   0.G   200.000  6000.000 1000.        1
 1.61678053E+01 2.34869894E-02-8.45465097E-06 1.36664033E-09-8.19389188E-14    2
 3.67356818E+04-5.98456163E+01 5.95576002E-01 4.31715811E-02 3.39695049E-05    3
-8.55153149E-08 4.02634981E-11 4.19756314E+04 2.57011560E+01 4.42221774E+04    4
oC8H7 C6H4CH=CH2  T12/07C  8.H  7.   0.   0.G   200.000  6000.000 1000.        1
 1.57334515E+01 2.38965492E-02-8.60829763E-06 1.39223384E-09-8.35065775E-14    2
 4.08827573E+04-5.82476667E+01 1.17830774E+00 3.40765502E-02 5.85065530E-05    3
-1.10953244E-07 4.95222636E-11 4.61414992E+04 2.36053284E+01 4.83284254E+04    4
C8H6 Phenylacetyl T12/06C  8.H  6.   0.   0.G   200.000  6000.000 1000.        1
 1.63582907E+01 2.11974105E-02-7.65817215E-06 1.24134505E-09-7.45327960E-14    2
 3.10375340E+04-6.22520227E+01-2.74707918E+00 7.78284438E-02-6.69709932E-05    3
 2.37972496E-08-8.43279765E-13 3.61131008E+04 3.54221257E+01 3.82082350E+04    4
C8H5 C6H5-CC*     T12/06C  8.H  5.   0.   0.G   200.000  6000.000 1000.        1
 1.45430114E+01 2.02785496E-02-7.36298153E-06 1.19771535E-09-7.20964829E-14    2
 7.20671458E+04-5.18466294E+01 1.77837769E+00 3.24193784E-02 3.85015803E-05    3
-8.03841588E-08 3.62690208E-11 7.66004229E+04 1.93639058E+01 7.87700143E+04    4
C8H2 linear       T11/07C  8.H  2.   0.   0.G   200.000  6000.000 1000.        1
 1.63586996E+01 1.08592595E-02-3.91654796E-06 6.34107033E-10-3.80413156E-14    2
 1.02366984E+05-5.56746562E+01-3.26701608E-01 9.43328676E-02-1.72876384E-04    3
 1.56816538E-07-5.40488426E-11 1.05392079E+05 2.20322120E+01 1.08244503E+05    4
! ATcT 2/21/2020
Benzene                 C   6H   6    0    0G    300.00   3000.00  894.10      1
 3.71970092E+00 3.67098514E-02-1.95969797E-05 5.02685209E-09-5.02544326E-13    2
 6.87201291E+03-2.85622592E-01-3.07380826E+00 4.60607126E-02 1.90700171E-08    3
-3.59248411E-08 1.83094104E-11 8.92781957E+03 3.64318638E+01                   4
 ATcT 2/21/2020
Fulvene                 C   6H   6    0    0G    300.00   3000.00  884.56      1
 4.57626928E+00 3.57844055E-02-1.92593524E-05 4.99099950E-09-5.04211214E-13    2
 2.43885046E+04-1.77678175E+00-3.98662925E+00 6.02892716E-02-3.67043816E-05    3
-3.25336720E-11 6.05151614E-12 2.64595517E+04 4.16277071E+01                   4
! ATcT 2/21/2020
15HD 1,5-hexadiyne      C   6H   6    0    0G    300.00   3000.00  898.15      1
 7.03617232E+00 3.08304983E-02-1.56559924E-05 3.85299360E-09-3.72307052E-13    2
 4.70288546E+04-8.83937043E+00 1.17107187E+00 5.01491805E-02-3.65578933E-05    3
 1.09324934E-08 5.48742620E-15 4.83567094E+04 2.03535280E+01                   4
! ATcT 2/21/2020
1245HT 1,2,4,5-hexatetr C   6H   6    0    0G    300.00   3000.00  831.84      1
 7.86163388E+00 3.06962046E-02-1.60595500E-05 4.07499472E-09-4.05559114E-13    2
 4.42289186E+04-1.43595781E+01-2.89238944E+00 7.96939281E-02-9.95455712E-05    3
 6.71031234E-08-1.81879781E-11 4.61124562E+04 3.61083621E+01                   4
! ATcT 2/21/2020
12HD5Y 1,2-hexadiene-5- C   6H   6    0    0G    300.00   3000.00  959.81      1
 6.75018002E+00 3.16900448E-02-1.63432080E-05 4.07781140E-09-3.98800682E-13    2
 4.69133276E+04-6.43289287E+00-4.00669431E-01 5.82773435E-02-5.28777031E-05    3
 2.59740053E-08-5.19674796E-12 4.84342359E+04 2.85441299E+01                   4
! ATcT 2/21/2020
13HD5Y 1,3-hexadiene-5- C   6H   6    0    0G    300.00   3000.00  917.79      1
 8.28838349E+00 2.73908462E-02-1.24784121E-05 2.65868865E-09-2.14774317E-13    2
 3.75890624E+04-1.60722597E+01-1.96454869E-04 5.07304337E-02-2.97219662E-05    3
-3.85149944E-12 4.64902488E-12 3.96487542E+04 2.61371579E+01                   4
! ATcT 2/21/2020
34DMCB 3,4-dimethylenec C   6H   6    0    0G    300.00   3000.00  904.14      1
 5.98209397E+00 3.31734439E-02-1.73680684E-05 4.38640389E-09-4.33142339E-13    2
 3.74285327E+04-8.94212746E+00-2.16685517E+00 5.60100620E-02-3.33294848E-05    3
-1.18423724E-11 5.25358303E-12 3.94422124E+04 3.25376675E+01                   4
! ATcT 2/21/2020
2E13BD 2-ethynyl-1,3-bu C   6H   6    0    0G    300.00   3000.00  908.40      1
 1.11158149E+01 2.38421868E-02-1.07996778E-05 2.32643921E-09-1.93486446E-13    2
 3.71852358E+04-3.23962818E+01-2.67231564E+00 6.92366412E-02-6.04538826E-05    3
 2.01917811E-08 3.40771673E-15 4.03221548E+04 3.62773943E+01                   4
C6H5 phenyl radi  T07/10C  6.H  5.   0.   0.G   200.000  6000.000 1000.        1
 1.09540673E+01 1.82072569E-02-6.63331157E-06 1.08125690E-09-6.51736617E-14    2
 3.51098413E+04-3.64320659E+01 4.91024498E-01 1.72669813E-02 7.02556406E-05    3
-1.13389805E-07 4.89202543E-11 3.92340510E+04 2.42505364E+01 4.05676342E+04    4
LC6H5 CHAIN       T02/13C  6.H  5.   0.   0.G   200.000  6000.000 1000.        1
 1.25741716E+01 1.60798796E-02-5.70684823E-06 9.14012701E-10-5.44207670E-14    2
 6.53917402E+04-3.82122725E+01 1.10254888E+00 4.70813200E-02-3.00988607E-05    3
 4.69225911E-10 5.25256079E-12 6.85431139E+04 2.10469724E+01 7.07019415E+04    4
oC6H4 o-benzyne   A02/05C  6.H  4.   0.   0.G   200.000  6000.000 1000.        1
 1.05707063E+01 1.56860613E-02-5.68267148E-06 9.22956737E-10-5.54966417E-14    2
 5.04976657E+04-3.32563927E+01 7.21604591E-01 2.47976151E-02 3.16372209E-05    3
-6.53230986E-08 2.96082142E-11 5.39797980E+04 2.16733825E+01 5.54615216E+04    4
cisC6H4 cis-1,5   A02/05C  6.H  4.   0.   0.G   200.000  6000.000 1000.        1
 1.22388926E+01 1.36279082E-02-4.80715345E-06 7.66746640E-10-4.55210640E-14    2
 5.81401255E+04-3.70117245E+01-4.36293187E-01 6.12732353E-02-7.68492543E-05    3
 5.18458875E-08-1.40527024E-11 6.10383325E+04 2.53964956E+01 6.30485193E+04    4
! o-C6H3 1,2-Benzyne-3-yl Radical 
c-C6H3 Radical Cy A02/05C  6.H  3.   0.   0.G   200.000  6000.000 1000.        1
 1.07791236E+01 1.29752918E-02-4.74348788E-06 7.75171464E-10-4.68121821E-14    2
 8.28078760E+04-3.23817342E+01 8.25343066E-01 2.54304386E-02 2.14951562E-05    3
-5.23692607E-08 2.43576096E-11 8.61930921E+04 2.24157823E+01 8.76673882E+04    4
C6H3 CH2=C=C=C=C=CT10/11C  6.H  3.   0.   0.G   200.000  6000.000 1000.        1
 1.20132339E+01 1.14461128E-02-4.08884040E-06 6.57753914E-10-3.92832116E-14    2
 8.25892145E+04-3.35118700E+01 1.50089155E+00 5.45901804E-02-7.88221454E-05    3
 6.27969099E-08-2.00768594E-11 8.49133510E+04 1.76237455E+01 8.72054353E+04    4
C6H2 triacetylen  T 8/10C   6H   2    0    0G   200.000  6000.000 1000.        1
 1.25237986E+01 8.78597449E-03-3.13663802E-06 5.04347263E-10-3.01110703E-14    2
 7.97838798E+04-3.88501187E+01-5.94408010E-01 7.46613698E-02-1.35848115E-04    3
 1.22198283E-07-4.17697584E-11 8.21259933E+04 2.21178523E+01 8.42887915E+04    4
C6H               T11/07C  6.H  1.   0.   0.G   200.000  6000.000 1000.        1
 1.16156848E+01 7.15667038E-03-2.60557304E-06 4.24485063E-10-2.55749647E-14    2
 1.16137629E+05-3.23417577E+01 9.05835416E-01 6.07760651E-02-1.12133809E-04    3
 1.02799034E-07-3.57814333E-11 1.18104727E+05 1.75980990E+01 1.20271670E+05    4
C6 linear biradi  T04/09C  6.   0.   0.   0.G   200.000  6000.000 1000.        1
 1.06841281E+01 5.62944075E-03-2.13152905E-06 3.56133777E-10-2.18273469E-14    2
 1.43741693E+05-2.87959136E+01 3.06949687E+00 3.71386246E-02-5.95698852E-05    3
 5.15924485E-08-1.77143386E-11 1.45477274E+05 8.35844575E+00 1.47610437E+05    4
c-C5H6 cyPentadie T 1/14C  5.H  6.   0.   0.G   200.000  6000.000 1000.        1
 9.88465785E+00 1.89943852E-02-6.87485480E-06 1.11556894E-09-6.70255571E-14    2
 7.14353103E+03-3.17238367E+01 9.77484017E-01 1.39109570E-02 7.36279225E-05    3
-1.14340239E-07 4.88766069E-11 1.08333853E+04 2.08861411E+01 1.21907364E+04    4
c-C5H5 cyPentadie T05/10C  5.H  5.   0.   0.G   200.000  6000.000 1000.        1
 1.02615305E+01 1.55578917E-02-5.54166182E-06 8.89865066E-10-5.30836089E-14    2
 2.69644257E+04-2.92211926E+01 1.63934946E+00 1.69922044E-02 5.28961483E-05    3
-9.02286424E-08 3.98154820E-11 3.01960941E+04 2.00912008E+01 3.17479394E+04    4
C4H5 1-Butayn-4yl T10/13C  4.H  5.   0.   0.G   200.000  6000.000 1000.        1
 9.14742675E+00 1.31171343E-02-4.58508051E-06 7.26399139E-10-4.29081515E-14    2
 4.14822768E+04-2.01678929E+01 1.19684515E+00 4.06756963E-02-4.17819232E-05    3
 2.33234920E-08-5.05113871E-12 4.34048978E+04 1.95123319E+01 4.52442104E+04    4
C4H4 CYbutadiene  T10/06C  4.H  4.   0.   0.G   200.000  6000.000 1000.        1
 6.15799403E+00 1.38046928E-02-4.89065781E-06 7.82030467E-10-4.64999095E-14    2
 4.88765056E+04-1.02472098E+01 1.66450475E+00 1.28883888E-02 3.00130083E-05    3
-5.09682379E-08 2.22098957E-11 5.06798795E+04 1.59431761E+01 5.19239258E+04    4
! 1 butene-3-yne, vinylacetylene
!bC4H4 1-butene-3  T06/04C  4.H  4.   0.   0.G   200.000  6000.000 1000.        1
! 7.98456038E+00 1.20558816E-02-4.23587475E-06 6.73646140E-10-3.99059864E-14    2
! 3.11993029E+04-1.67958975E+01 1.37368786E+00 2.88801256E-02-1.46863874E-05    3
!-3.91045446E-09 4.78133572E-12 3.30633344E+04 1.75941274E+01 3.46213066E+04    4
! Was using C4H3 E-1yl Radical but need to check if including
C4H3 E-1yl RadicalT06/04C  4.H  3.   0.   0.G   200.000  6000.000 1000.        1
 8.44631306E+00 9.07291526E-03-3.18681201E-06 5.06725048E-10-3.00149855E-14    2
 6.20007365E+04-1.77938854E+01 5.54263934E-01 3.86185425E-02-4.70818280E-05    3
 3.06240321E-08-7.90588421E-12 6.37974910E+04 2.10542043E+01 6.53200393E+04    4
!C4H3 i-2yl Rad    T06/04C  4.H  3.   0.   0.G   200.000  6000.000 1000.        1
! 8.51181244E+00 9.03337808E-03-3.17602594E-06 5.05276458E-10-2.99379699E-14    2
! 5.71046116E+04-1.51017769E+01 3.37964170E+00 2.70498840E-02-2.90761572E-05    3
! 1.83027765E-08-4.81164203E-12 5.83688723E+04 1.05464883E+01 6.03558069E+04    4
C4H2 diacetylene  T 2/16C  4.H  2.   0.   0.G   200.000  6000.000 1000.        1
 8.65615648E+00 6.74465042E-03-2.36868410E-06 3.76553454E-10-2.22995205E-14    2
 5.22459295E+04-2.18462806E+01-5.02389168E-01 5.25164044E-02-9.29945578E-05    3
 8.17206506E-08-2.73537313E-11 5.38574848E+04 2.06780532E+01 5.53688672E+04    4
C4H               T11/07C  4.H  1.   0.   0.G   200.000  6000.000 1000.        1
 7.71800442E+00 5.12536823E-03-1.83737720E-06 2.96241205E-10-1.77194924E-14    2
 9.10681562E+04-1.51617127E+01 9.38092844E-01 3.85919898E-02-6.86754710E-05    3
 6.13264695E-08-2.08965640E-11 9.23123334E+04 1.65009843E+01 9.38119023E+04    4
C4  triplet       T05/09C  4.   0.   0.   0.G   200.000  6000.000 1000.        1
 5.82677899E+00 5.83329662E-03-2.15836958E-06 3.43725387E-10-2.02423736E-14    2
 1.25415411E+05-4.21229950E+00 3.68513415E+00 1.84222993E-02-3.11974431E-05    3
 2.96449807E-08-1.07297820E-11 1.25758840E+05 5.42249286E+00 1.27454267E+05    4
C3H5 allyl symet  T 5/14C  3.H  5.   0.   0.G   200.000  6000.000 1000.        1
 6.74633155E+00 1.31071760E-02-4.60059113E-06 7.31029510E-10-4.32759674E-14    2
 1.71151431E+04-1.25248814E+01 1.65533607E+00 1.63688750E-02 2.10544223E-05    3
-4.24018394E-08 1.92638759E-11 1.89454047E+04 1.61040987E+01 2.02778035E+04    4
a-C3H4 allene     L 8/89C   3H   4    0    0G   200.000  6000.000 1000.        1
 0.63168722E+01 0.11133728E-01-0.39629378E-05 0.63564238E-09-0.37875540E-13    2
 0.20117495E+05-0.10995766E+02 0.26130445E+01 0.12122575E-01 0.18539880E-04    3
-0.34525149E-07 0.15335079E-10 0.21541567E+05 0.10226139E+02 0.22962267E+05    4
p-C3H4 propyne    T 2/90H   4C   3    0    0G   200.000  6000.000 1000.        1
 0.60252400E+01 0.11336542E-01-0.40223391E-05 0.64376063E-09-0.38299635E-13    2
 0.19620942E+05-0.86043785E+01 0.26803869E+01 0.15799651E-01 0.25070596E-05    3
-0.13657623E-07 0.66154285E-11 0.20802374E+05 0.98769351E+01 0.22302059E+05    4
C3H3 propargyl    T 7/11C  3.H  3.   0.   0.G   200.000  6000.000 1000.        1
 7.14221719E+00 7.61902211E-03-2.67460030E-06 4.24914904E-10-2.51475443E-14    2
 3.95709594E+04-1.25848690E+01 1.35110873E+00 3.27411291E-02-4.73827407E-05    3
 3.76310220E-08-1.18541128E-11 4.07679941E+04 1.52058598E+01 4.22762135E+04    4
C3H2 1-propynyl   T 6/16C  3.H  2.   0.   0.G   200.000  6000.000  B  38.04798 1
 6.67324582E+00 5.57729100E-03-1.99180291E-06 3.20289423E-10-1.91216473E-14    2
 6.42843566E+04-1.03146324E+01 2.43417310E+00 1.73013088E-02-1.18294142E-05    3
 1.02757825E-09 1.62625574E-12 6.54347265E+04 1.15155251E+01 6.68277505E+04    4
!
! C2H4 <g> ATcT ver. 1.122, DHf298 = 52.45 ± 0.13 kJ/mol - fit JAN17
C2H4 ethylene     ATcT3EC   2H   4    0    0G    200.00   6000.00 1000.00      1
 4.14446010E+00 1.02648277E-02-3.61246996E-06 5.74008727E-10-3.39295896E-14    2
 4.19059383E+03-1.14778318E+00 3.65150713E+00-5.35067462E-03 5.16486118E-05    3
-6.36868930E-08 2.50743457E-11 5.11450775E+03 5.38560851E+00 6.30768405E+03    4
!
! C2H3 <g> ATcT ver. 1.122, DHf298 = 296.91 ± 0.33 kJ/mol - fit JAN17
C2H3 vinyl radi   ATcT3EC   2H   3    0    0G    200.00   6000.00 1000.00      1
 4.37211201E+00 7.46869010E-03-2.64715570E-06 4.22753257E-10-2.44958401E-14    2
 3.38051964E+04 4.28771726E-01 3.12502174E+00 2.35136801E-03 2.36803425E-05    3
-3.35092391E-08 1.39444106E-11 3.45243318E+04 8.81537658E+00 3.57101874E+04    4
!
! HCCH <g> ATcT ver. 1.122, DHf298 = 228.27 ± 0.13 kJ/mol - fit JAN17
C2H2 acetylene    ATcT3EC   2H   2    0    0G    200.00   6000.00 1000.00      1
 4.66165760E+00 4.88861739E-03-1.61257351E-06 2.48284097E-10-1.39736824E-14    2
 2.57695270E+04-4.01062351E+00 6.26263508E-01 2.47263532E-02-3.89555894E-05    3
 3.16484975E-08-9.87351295E-12 2.64555796E+04 1.46968104E+01 2.74550533E+04    4
!
! CCH2 <g> ATcT ver. 1.122, DHf298 = 412.20 ± 0.33 kJ/mol - fit JAN17
H2CC vinylidene   ATcT3EC   2H   2    0    0G    200.00   6000.00 1000.00      1
 4.47847876E+00 4.84707787E-03-1.76213069E-06 2.92788093E-10-1.76554272E-14    2
 4.79490021E+04-7.84806167E-02 3.78897979E+00 5.91794674E-03-1.08086175E-06    3
-1.85638085E-09 1.06887466E-12 4.81959632E+04 3.71766330E+00 4.95760273E+04    4
C2H ethynyl Rad   T 5/10C  2.H  1.   0.   0.G   200.000  6000.000 1000.        1
 3.66270248E+00 3.82492252E-03-1.36632500E-06 2.13455040E-10-1.23216848E-14    2
 6.71683790E+04 3.92205792E+00 2.89867676E+00 1.32988489E-02-2.80733327E-05    3
 2.89484755E-08-1.07502351E-11 6.70616050E+04 6.18547632E+00 6.83210436E+04    4
!
! CH4 <g> ATcT ver. 1.122, DHf298 = -74.519 ± 0.057 kJ/mol - fit JAN17
CH4               ATcT3EC   1H   4    0    0G    200.00   6000.00 1000.00      1
 1.68377091E+00 1.00130251E-02-3.31267639E-06 5.30233546E-10-3.13372430E-14    2
-1.00187792E+04 9.71477402E+00 5.00701913E+00-1.26484158E-02 4.66821073E-05    3
-4.59210565E-08 1.57633618E-11-1.02223522E+04-4.04227377E+00-8.96257618E+03    4
!
! CH3 <g> ATcT ver. 1.122, DHf298 = 146.374 ± 0.080 kJ/mol - fit JAN17
CH3               ATcT3EC   1H   3    0    0G    200.00   6000.00 1000.00      1
 2.92198336E+00 5.37478625E-03-1.99748367E-06 2.97584806E-10-1.71860088E-14    2
 1.65446753E+04 5.25396822E+00 3.61264389E+00 3.09209041E-03 9.25474611E-07    3
-1.65776770E-09 6.07243533E-13 1.63849955E+04 1.79994780E+00 1.76047468E+04    4
!
! CH2 <g, triplet> ATcT ver. 1.122, DHf298 = 391.52 ± 0.12 kJ/mol - fit JAN17
CH2(t)            ATcT3EC   1H   2    0    0G    200.00   6000.00 1000.00      1
 2.81412990E+00 3.79513443E-03-7.38424949E-07 7.19948955E-11-2.63188525E-15    2
 4.61859709E+04 6.52945537E+00 3.74842895E+00 1.07655977E-03 3.62462012E-06    3
-4.46165519E-09 1.95224874E-12 4.58990472E+04 1.63509483E+00 4.70886746E+04    4
! CH2 <g, singlet> ATcT ver. 1.122, DHf298 = 429.03 ± 0.13 kJ/mol - fit JAN17
!
CH2(s)            ATcT3EC   1H   2    0    0G    200.00   6000.00 1000.00      1
 2.86931299E+00 3.39756979E-03-1.00599964E-06 1.50562822E-10-8.61237607E-15    2
 5.06285244E+04 5.53163503E+00 4.18489675E+00-2.16396813E-03 7.68523621E-06    3
-5.98243427E-09 1.67910304E-12 5.03923371E+04-7.17772105E-01 5.16008125E+04    4
!
! CH <g> ATcT ver. 1.122, DHf298 = 596.12 ± 0.11 kJ/mol - fit JAN17
CH                ATcT3EC   1H   1    0    0G    200.00   6000.00 1000.00      1
 2.74988924E+00 1.36248089E-03-2.71161485E-07 2.47828427E-11-1.18067699E-15    2
 7.08999411E+04 6.13979299E+00 3.49602032E+00 2.77423807E-04-1.57433829E-06    3
 3.07038632E-09-1.40468135E-12 7.06500301E+04 2.05802158E+00 7.16962797E+04    4
! CH <g, doublet> ATcT ver. 1.122, DHf298 = 596.12 ± 0.11 kJ/mol - fit JAN17
CH(d)             ATcT3EC   1H   1    0    0G    200.00   6000.00 1000.00      1
 2.79005500E+00 1.47366726E-03-4.89952372E-07 8.42815390E-11-5.69435026E-15    2
 7.08617025E+04 5.84023408E+00 3.49431733E+00 2.97619308E-04-1.65965145E-06    3
 3.22283999E-09-1.50276810E-12 7.06501390E+04 2.06434206E+00 7.16962797E+04    4
! CH <g, quartet> ATcT ver. 1.122, DHf298 = 667.88 ± 0.59 kJ/mol - fit JAN17
CH(q)             ATcT3EC   1H   1    0    0G    200.00   6000.00 1000.00      1
 2.91003223E+00 1.12457177E-03-2.72374175E-07 3.28839200E-11-2.03029198E-15    2
 7.94638016E+04 5.17133762E+00 3.46488696E+00 4.57381151E-04-1.99463591E-06    3
 3.31136106E-09-1.44590981E-12 7.92857861E+04 2.13500259E+00 8.03275055E+04    4
!
! H2 <g> ATcT ver. 1.122, DHf298 = 0.000 ± 0.000 kJ/mol - fit JAN17
H2 REF ELEMENT    ATcT3EH   2    0    0    0G    200.00   6000.00 1000.00      1
 2.90207649E+00 8.68992581E-04-1.65864430E-07 1.90851899E-11-9.31121789E-16    2
-7.97948726E+02-8.45591320E-01 2.37694204E+00 7.73916922E-03-1.88735073E-05    3
 1.95517114E-08-7.17095663E-12-9.21173081E+02 5.47184736E-01 0.00000000E+00    4
!
! H <g> ATcT ver. 1.122, DHf298 = 217.998 ± 0.000 kJ/mol - fit JAN17
H                 ATcT3EH   1    0    0    0G    200.00   6000.00 1000.00      1
 2.49985211E+00 2.34582548E-07-1.16171641E-10 2.25708298E-14-1.52992005E-18    2
 2.54738024E+04-4.45864645E-01 2.49975925E+00 6.73824499E-07 1.11807261E-09    3
-3.70192126E-12 2.14233822E-15 2.54737665E+04-4.45574009E-01 2.62191345E+04    4
!
! Ar <g> ATcT ver. 1.122, DHf298 = 0.000 ± 0.000 kJ/mol - fit JAN17
Ar REF ELEMENT    ATcT3EAR  1    0    0    0G    200.00   6000.00 1000.00      1
 2.49989176E+00 1.56134837E-07-7.76108557E-11 1.52928085E-14-1.05304493E-18    2
-7.45328403E+02 4.38029835E+00 2.49988611E+00 2.13037960E-07 8.97320772E-10    3
-2.31395752E-12 1.30201393E-15-7.45354481E+02 4.38024367E+00 0.00000000E+00    4
Kr REF ELEMENT    g 8/97KR  1    0    0    0G   200.000  6000.000 1000.        1
 2.50001436E+00-2.78190281E-08 1.74071629E-11-4.31400304E-15 3.66743374E-19    2
-7.45380247E+02 5.49087778E+00 2.50000000E+00 0.00000000E+00 0.00000000E+00    3
 0.00000000E+00 0.00000000E+00-7.45375000E+02 5.49095651E+00 0.00000000E+00    4
Ne REF ELEMENT    g 5/97NE  100  0    0    0G   200.000  6000.000 1000.        1
 2.50000000E+00 0.00000000E+00 0.00000000E+00 0.00000000E+00 0.00000000E+00    2
-7.45375000E+02 3.35532272E+00 2.50000000E+00 0.00000000E+00 0.00000000E+00    3
 0.00000000E+00 0.00000000E+00-7.45375000E+02 3.35532272E+00 0.00000000E+00    4
END