!
! Ring opening in cycloheptane and dissociation of 1-heptene at high temperatures
! Travis Sikes, Kirsten Bell Burdett, Raymond L. Speth, C. Franklin Goldsmith, Raghu Sivaramakrishnan, and Robert S. Tranter
! Proc. Combust. Inst. 38, 2021
!
! Thermo is from Burcat Oct 2019 unless otherwise noted 
!
THERMO
   200.000  1000.000  6000.000
!
! Ar <g> ATcT ver. 1.122, DHf298 = 0.000 ± 0.000 kJ/mol - fit JAN17
Ar REF ELEMENT    ATcT3EAR  1    0    0    0G    200.00   6000.00 1000.00      1
 2.49989176E+00 1.56134837E-07-7.76108557E-11 1.52928085E-14-1.05304493E-18    2
-7.45328403E+02 4.38029835E+00 2.49988611E+00 2.13037960E-07 8.97320772E-10    3
-2.31395752E-12 1.30201393E-15-7.45354481E+02 4.38024367E+00 0.00000000E+00    4
Kr REF ELEMENT    g 8/97KR  1    0    0    0G   200.000  6000.000 1000.        1
 2.50001436E+00-2.78190281E-08 1.74071629E-11-4.31400304E-15 3.66743374E-19    2
-7.45380247E+02 5.49087778E+00 2.50000000E+00 0.00000000E+00 0.00000000E+00    3
 0.00000000E+00 0.00000000E+00-7.45375000E+02 5.49095651E+00 0.00000000E+00    4
C8H18 n-octane    P 4/85C  8.H 18.   0.   0.G   200.000  6000.000 1000.        1
 2.09430708E+01 4.41691018E-02-1.53261633E-05 2.30544803E-09-1.29765727E-13    2
-3.55755088E+04-8.10637726E+01 1.25245480E+01-1.01018826E-02 2.21992610E-04    3
-2.84863722E-07 1.12410138E-10-2.98434398E+04-1.97109989E+01-2.51067110E+04    4
cC7H14 cycloheptane 4/13C  7.H 14.   0.   0.G   200.000  6000.000 1000.        1
 1.22986751E+01 4.34365917E-02-1.56292934E-05 2.52577071E-09-1.51308448E-13    2
-2.16274949E+04-4.64685857E+01 5.18959333E+00-4.35875751E-03 1.85923949E-04    3
-2.37487354E-07 9.32130049E-11-1.64747342E+04 6.32123586E+00-1.39038765E+04    4
1C7H14 1-heptene  P 4/87C  7.H 14.   0.   0.G   200.000  6000.000 1000.        1
 2.00329343E+01 3.01875580E-02-9.96912897E-06 1.59376458E-09-9.64314031E-14    2
-1.70512608E+04-7.66778730E+01 8.70539860E+00 2.80074488E-03 1.55206000E-04    3
-2.09014025E-07 8.40505778E-11-1.12661494E+04-4.46493550E+00-7.54824999E+03    4
cC7H13 cyheptanyl T11/06C  7.H 13.   0.   0.G   200.000  6000.000 1000.        1
 1.31617406E+01 3.99782375E-02-1.43822325E-05 2.32397677E-09-1.39209742E-13    2
 1.65726734E+03-4.85663807E+01 5.08194959E+00 3.18392986E-03 1.58330877E-04    3
-2.08396268E-07 8.27420243E-11 6.66699015E+03 7.20436454E+00 9.34976565E+03    4
cC7H12 cy-heptene T11/06C  7.H 12.   0.   0.G   200.000  6000.000 1000.        1
 1.38899362E+01 3.72244039E-02-1.35249550E-05 2.19988887E-09-1.32378631E-13    2
-8.85338254E+03-5.56568401E+01 2.57380844E+00 1.43453380E-02 1.36079279E-04    3
-1.91237136E-07 7.78956054E-11-3.21214056E+03 1.55611621E+01-9.46047332E+02    4
C6H14 n-hexane    g 6/01C  6.H 14.   0.   0.G   200.000  6000.000 1000.        1
 1.95158086E+01 2.67753942E-02-7.49783741E-06 1.19510646E-09-7.51957473E-14    2
-2.94362466E+04-7.74895497E+01 9.87121167E+00-9.36699002E-03 1.69887865E-04    3
-2.15019520E-07 8.45407091E-11-2.37185495E+04-1.24999353E+01-2.00757471E+04    4
C6H10 1,5hexadien ATcT3EC   6H  10    0    0G    200.00   6000.00 1000.00      1
 1.22317520E+01 3.01091787E-02-1.01167788E-05 1.63330847E-09-9.76668916E-14    2
 3.74944662E+03-3.74271376E+01 6.37346332E+00 8.42476117E-03 9.96758637E-05    3
-1.35645604E-07 5.49313088E-11 7.16632943E+03 1.83097679E+00 1.00795456E+04    4
C6H6 benzene      g 6/01C  6.H  6.   0.   0.G   200.000  6000.000 1000.        1
 1.10809576E+01 2.07176746E-02-7.52145991E-06 1.22320984E-09-7.36091279E-14    2
 4.30641035E+03-4.00413310E+01 5.04818632E-01 1.85020642E-02 7.38345881E-05    3
-1.18135741E-07 5.07210429E-11 8.55247913E+03 2.16412893E+01 9.96811598E+03    4
!
!C5H8 download from Burcat Oct 2019. USe for 1,4-pentadiene
C5H8 1,3 Pentadi  A12/04C  5.H  8.   0.   0.G   200.000  6000.000 1000.        1
 1.06253702E+01 2.34322094E-02-8.61216410E-06 1.40664328E-09-8.47997015E-14    2
 4.64864607E+03-3.18725934E+01 3.47443097E+00 1.48104285E-02 6.38218646E-05    3
-9.32324174E-08 3.78929523E-11 8.03001422E+03 1.19810267E+01 1.01217000E+04    4
!
nC4H10 n-butane   g12/00C  4.H 10.   0.   0.G   200.000  6000.000 1000.        1
 9.44547835E+00 2.57856620E-02-9.23613194E-06 1.48631762E-09-8.87891206E-14    2
-2.01383773E+04-2.63477585E+01 6.14474013E+00 1.64500242E-04 9.67848789E-05    3
-1.25486208E-07 4.97846257E-11-1.75989467E+04-1.08058878E+00-1.51289733E+04    4
C4H10 isobutane   g 8/00C  4.H 10.   0.   0.G   200.000  6000.000 1000.        1
 9.76991697E+00 2.54997141E-02-9.14142587E-06 1.47328201E-09-8.80799697E-14    2
-2.14052667E+04-3.00329670E+01 4.45479140E+00 8.26058864E-03 8.29886433E-05    3
-1.14647616E-07 4.64569994E-11-1.84593929E+04 4.92740653E+00-1.62354727E+04    4
nC4H9 n-butyl     T 7/04C  4.H  9.   0.   0.G   200.000  6000.000 1000.        1
 8.97401527E+00 2.39704154E-02-8.48703645E-06 1.35644127E-09-8.06234913E-14    2
 5.19161526E+03-2.31075609E+01 4.73737837E+00 9.69051565E-03 6.63846383E-05    3
-9.24799302E-08 3.74006099E-11 7.57382332E+03 4.91063455E+00 9.83838903E+03    4
1C4H8 1-butene    T05/09C  4.H  8.   0.   0.G   200.000  6000.000 1000.        1
 7.86795262E+00 2.24448843E-02-8.07705438E-06 1.30179988E-09-7.77958472E-14    2
-4.23853340E+03-1.65662549E+01 5.13226136E+00 5.33862838E-03 6.02928960E-05    3
-7.60364685E-08 2.87324693E-11-2.16718358E+03 3.82936810E+00-3.72842176E+00    4
nC4H7 tt-1buten-  T05/04C  4.H  7.   0.   0.G   200.000  6000.000 1000.        1
 8.15646382E+00 1.90308835E-02-6.73262214E-06 1.07333098E-09-6.36886441E-14    2
 2.55826427E+04-1.61428872E+01 4.19857522E+00 1.19616999E-02 4.23864923E-05    3
-6.30299109E-08 2.59475110E-11 2.75256555E+04 8.57181248E+00 2.95712937E+04    4
C4H6  1,3-butadienT05/04C  4.H  6.   0.   0.G   200.000  6000.000 1000.        1
 7.62637466E+00 1.72523403E-02-6.09184911E-06 9.70800102E-10-5.76169721E-14    2
 9.55306395E+03-1.48325259E+01 4.10599669E+00 5.05575563E-03 5.83885454E-05    3
-8.05950198E-08 3.27447711E-11 1.15092468E+04 8.42978067E+00 1.33302095E+04    4
C3H8 propane      g 2/00C  3.H  8.   0.   0.G   200.000  6000.000 1000.        1
 6.66919760E+00 2.06108751E-02-7.36512349E-06 1.18434262E-09-7.06914630E-14    2
-1.62754066E+04-1.31943379E+01 4.21093013E+00 1.70886504E-03 7.06530164E-05    3
-9.20060565E-08 3.64618453E-11-1.43810883E+04 5.61004451E+00-1.25900384E+04    4
nC3H7 n-propyl    A 5/05C  3.H  7.   0.   0.G   200.000  6000.000 1000.        1
 6.49636579E+00 1.77337992E-02-6.24898046E-06 9.95389495E-10-5.90199770E-14    2
 8.85973885E+03-8.56389710E+00 4.08211458E+00 5.23240341E-03 5.13554466E-05    3
-6.99343598E-08 2.81819493E-11 1.04074558E+04 8.39534919E+00 1.21859256E+04    4
iC3H7 i-propyl    A 5/05C  3.H  7.   0.   0.G   200.000  6000.000 1000.        1
 5.30597255E+00 1.89854588E-02-6.74315384E-06 1.07993730E-09-6.42785036E-14    2
 7.78748910E+03-2.23233935E+00 5.47421257E+00-8.42536682E-03 8.04607759E-05    3
-9.49287824E-08 3.59830971E-11 9.04939013E+03 3.40542323E+00 1.08473019E+04    4
C3H6 propylene    g 2/00C  3.H  6.   0.   0.G   200.000  6000.000 1000.        1
 6.03870234E+00 1.62963931E-02-5.82130800E-06 9.35936829E-10-5.58603143E-14    2
-7.41715057E+02-8.43825992E+00 3.83464468E+00 3.29078952E-03 5.05228001E-05    3
-6.66251176E-08 2.63707473E-11 7.88717123E+02 7.53408013E+00 2.40543339E+03    4
C3H5 allyl symet  T 5/14C  3.H  5.   0.   0.G   200.000  6000.000 1000.        1
 6.74633155E+00 1.31071760E-02-4.60059113E-06 7.31029510E-10-4.32759674E-14    2
 1.71151431E+04-1.25248814E+01 1.65533607E+00 1.63688750E-02 2.10544223E-05    3
-4.24018394E-08 1.92638759E-11 1.89454047E+04 1.61040987E+01 2.02778035E+04    4
aC3H4 allene      L 8/89C   3H   4    0    0G   200.000  6000.000 1000.        1
 0.63168722E+01 0.11133728E-01-0.39629378E-05 0.63564238E-09-0.37875540E-13    2
 0.20117495E+05-0.10995766E+02 0.26130445E+01 0.12122575E-01 0.18539880E-04    3
-0.34525149E-07 0.15335079E-10 0.21541567E+05 0.10226139E+02 0.22962267E+05    4
pC3H4 propyne     T 2/90C   3H   4    0    0G   200.000  6000.000 1000.        1
 0.60252400E+01 0.11336542E-01-0.40223391E-05 0.64376063E-09-0.38299635E-13    2
 0.19620942E+05-0.86043785E+01 0.26803869E+01 0.15799651E-01 0.25070596E-05    3
-0.13657623E-07 0.66154285E-11 0.20802374E+05 0.98769351E+01 0.22302059E+05    4 
C3H3 propargyl    T 7/11C  3.H  3.   0.   0.G   200.000  6000.000 1000.        1
 7.14221719E+00 7.61902211E-03-2.67460030E-06 4.24914904E-10-2.51475443E-14    2
 3.95709594E+04-1.25848690E+01 1.35110873E+00 3.27411291E-02-4.73827407E-05    3
 3.76310220E-08-1.18541128E-11 4.07679941E+04 1.52058598E+01 4.22762135E+04    4
!
! C2H6 <g> ATcT ver. 1.122, DHf298 = -83.91 ± 0.14 kJ/mol - fit JAN17
C2H6 ethane       ATcT3EC   2H   6    0    0G    200.00   6000.00 1000.00      1
 3.97869303E+00 1.54586738E-02-5.37526584E-06 8.59586664E-10-5.11297726E-14    2
-1.24445501E+04-6.27169623E-01 4.14633324E+00-4.42384448E-03 5.70675847E-05    3
-6.76419283E-08 2.57224127E-11-1.15145444E+04 3.26635850E+00-1.00922945E+04    4
!
! CH3CH2 <g> ATcT ver. 1.122, DHf298 = 119.86 ± 0.28 kJ/mol - fit JAN17
C2H5 ethyl radic  ATcT3EC   2H   5    0    0G    200.00   6000.00 1000.00      1
 4.41716986E+00 1.22704143E-02-4.34557774E-06 6.94962736E-10-4.13530760E-14    2
 1.21467900E+04-3.87435311E-01 4.11105107E+00-2.63843875E-03 4.60475495E-05    3
-5.64273193E-08 2.19027735E-11 1.30013714E+04 4.99417675E+00 1.44154846E+04    4
!
! C2H4 <g> ATcT ver. 1.122, DHf298 = 52.45 ± 0.13 kJ/mol - fit JAN17
C2H4 ethylene     ATcT3EC   2H   4    0    0G    200.00   6000.00 1000.00      1
 4.14446010E+00 1.02648277E-02-3.61246996E-06 5.74008727E-10-3.39295896E-14    2
 4.19059383E+03-1.14778318E+00 3.65150713E+00-5.35067462E-03 5.16486118E-05    3
-6.36868930E-08 2.50743457E-11 5.11450775E+03 5.38560851E+00 6.30768405E+03    4
!
! C2H3 <g> ATcT ver. 1.122, DHf298 = 296.91 ± 0.33 kJ/mol - fit JAN17
C2H3 vinyl radi   ATcT3EC   2H   3    0    0G    200.00   6000.00 1000.00      1
 4.37211201E+00 7.46869010E-03-2.64715570E-06 4.22753257E-10-2.44958401E-14    2
 3.38051964E+04 4.28771726E-01 3.12502174E+00 2.35136801E-03 2.36803425E-05    3
-3.35092391E-08 1.39444106E-11 3.45243318E+04 8.81537658E+00 3.57101874E+04    4
!
! HCCH <g> ATcT ver. 1.122, DHf298 = 228.27 ± 0.13 kJ/mol - fit JAN17
C2H2 acetylene    ATcT3EC   2H   2    0    0G    200.00   6000.00 1000.00      1
 4.66165760E+00 4.88861739E-03-1.61257351E-06 2.48284097E-10-1.39736824E-14    2
 2.57695270E+04-4.01062351E+00 6.26263508E-01 2.47263532E-02-3.89555894E-05    3
 3.16484975E-08-9.87351295E-12 2.64555796E+04 1.46968104E+01 2.74550533E+04    4
!
! CH4 <g> ATcT ver. 1.122, DHf298 = -74.519 ± 0.057 kJ/mol - fit JAN17
CH4               ATcT3EC   1H   4    0    0G    200.00   6000.00 1000.00      1
 1.68377091E+00 1.00130251E-02-3.31267639E-06 5.30233546E-10-3.13372430E-14    2
-1.00187792E+04 9.71477402E+00 5.00701913E+00-1.26484158E-02 4.66821073E-05    3
-4.59210565E-08 1.57633618E-11-1.02223522E+04-4.04227377E+00-8.96257618E+03    4
!
! CH3 <g> ATcT ver. 1.122, DHf298 = 146.374 ± 0.080 kJ/mol - fit JAN17
CH3               ATcT3EC   1H   3    0    0G    200.00   6000.00 1000.00      1
 2.92198336E+00 5.37478625E-03-1.99748367E-06 2.97584806E-10-1.71860088E-14    2
 1.65446753E+04 5.25396822E+00 3.61264389E+00 3.09209041E-03 9.25474611E-07    3
-1.65776770E-09 6.07243533E-13 1.63849955E+04 1.79994780E+00 1.76047468E+04    4
!
! CH2 <g, triplet> ATcT ver. 1.122, DHf298 = 391.52 ± 0.12 kJ/mol - fit JAN17
CH2(T)            ATcT3EC   1H   2    0    0G    200.00   6000.00 1000.00      1
 2.81412990E+00 3.79513443E-03-7.38424949E-07 7.19948955E-11-2.63188525E-15    2
 4.61859709E+04 6.52945537E+00 3.74842895E+00 1.07655977E-03 3.62462012E-06    3
-4.46165519E-09 1.95224874E-12 4.58990472E+04 1.63509483E+00 4.70886746E+04    4
! 
! CH2 <g, singlet> ATcT ver. 1.122, DHf298 = 429.03 ± 0.13 kJ/mol - fit JAN17
CH2(S)            ATcT3EC   1H   2    0    0G    200.00   6000.00 1000.00      1
 2.86931299E+00 3.39756979E-03-1.00599964E-06 1.50562822E-10-8.61237607E-15    2
 5.06285244E+04 5.53163503E+00 4.18489675E+00-2.16396813E-03 7.68523621E-06    3
-5.98243427E-09 1.67910304E-12 5.03923371E+04-7.17772105E-01 5.16008125E+04    4
!
! H2 <g> ATcT ver. 1.122, DHf298 = 0.000 ± 0.000 kJ/mol - fit JAN17
H2 REF ELEMENT    ATcT3EH   2    0    0    0G    200.00   6000.00 1000.00      1
 2.90207649E+00 8.68992581E-04-1.65864430E-07 1.90851899E-11-9.31121789E-16    2
-7.97948726E+02-8.45591320E-01 2.37694204E+00 7.73916922E-03-1.88735073E-05    3
 1.95517114E-08-7.17095663E-12-9.21173081E+02 5.47184736E-01 0.00000000E+00    4
!
! H <g> ATcT ver. 1.122, DHf298 = 217.998 ± 0.000 kJ/mol - fit JAN17
H                 ATcT3EH   1    0    0    0G    200.00   6000.00 1000.00      1
 2.49985211E+00 2.34582548E-07-1.16171641E-10 2.25708298E-14-1.52992005E-18    2
 2.54738024E+04-4.45864645E-01 2.49975925E+00 6.73824499E-07 1.11807261E-09    3
-3.70192126E-12 2.14233822E-15 2.54737665E+04-4.45574009E-01 2.62191345E+04    4
END